
OS:Version,
  {0b2aa138-d507-459d-b52f-36c4deb9dbb7}, !- Handle
  2.8.1;                                  !- Version Identifier

OS:BuildingStory,
  {bb83b494-c6d4-49f3-b6cd-8e32146ad086}, !- Handle
  Story 1,                                !- Name
  0,                                      !- Nominal Z Coordinate {m}
  3.2,                                    !- Nominal Floor to Floor Height {m}
  ,                                       !- Default Construction Set Name
  ,                                       !- Default Schedule Set Name
  ;                                       !- Group Rendering Name

OS:Space,
  {067b6842-6b0d-451c-a13a-7be0cbd6a2ff}, !- Handle
  Story 1 West Perimeter Space,           !- Name
  ,                                       !- Space Type Name
  ,                                       !- Default Construction Set Name
  ,                                       !- Default Schedule Set Name
  -0,                                     !- Direction of Relative North {deg}
  0,                                      !- X Origin {m}
  0,                                      !- Y Origin {m}
  0,                                      !- Z Origin {m}
  {bb83b494-c6d4-49f3-b6cd-8e32146ad086}, !- Building Story Name
  {bdd0a58c-c4a9-4d7d-8d12-eb998ffeeeb8}; !- Thermal Zone Name

OS:Surface,
  {dde51742-8df7-43e1-bca4-85680ce5d865}, !- Handle
  Surface 1,                              !- Name
  Floor,                                  !- Surface Type
  ,                                       !- Construction Name
  {067b6842-6b0d-451c-a13a-7be0cbd6a2ff}, !- Space Name
  Ground,                                 !- Outside Boundary Condition
  ,                                       !- Outside Boundary Condition Object
  NoSun,                                  !- Sun Exposure
  NoWind,                                 !- Wind Exposure
  ,                                       !- View Factor to Ground
  ,                                       !- Number of Vertices
  0, 0, 0,                                !- X,Y,Z Vertex 1 {m}
  0, 100, 0,                              !- X,Y,Z Vertex 2 {m}
  4.57, 95.43, 0,                         !- X,Y,Z Vertex 3 {m}
  4.57, 4.57, 0;                          !- X,Y,Z Vertex 4 {m}

OS:Surface,
  {3c14887b-6764-4008-8ff2-9ce354c49a82}, !- Handle
  Surface 2,                              !- Name
  Wall,                                   !- Surface Type
  ,                                       !- Construction Name
  {067b6842-6b0d-451c-a13a-7be0cbd6a2ff}, !- Space Name
  Outdoors,                               !- Outside Boundary Condition
  ,                                       !- Outside Boundary Condition Object
  SunExposed,                             !- Sun Exposure
  WindExposed,                            !- Wind Exposure
  ,                                       !- View Factor to Ground
  ,                                       !- Number of Vertices
  0, 100, 3.2,                            !- X,Y,Z Vertex 1 {m}
  0, 100, 0,                              !- X,Y,Z Vertex 2 {m}
  0, 0, 0,                                !- X,Y,Z Vertex 3 {m}
  0, 0, 3.2;                              !- X,Y,Z Vertex 4 {m}

OS:Surface,
  {96fcb5dc-3843-4ec3-92da-fdb593222224}, !- Handle
  Surface 3,                              !- Name
  Wall,                                   !- Surface Type
  ,                                       !- Construction Name
  {067b6842-6b0d-451c-a13a-7be0cbd6a2ff}, !- Space Name
  Surface,                                !- Outside Boundary Condition
  {bbad4089-1542-4196-8b1b-c07f92dbbbae}, !- Outside Boundary Condition Object
  NoSun,                                  !- Sun Exposure
  NoWind,                                 !- Wind Exposure
  ,                                       !- View Factor to Ground
  ,                                       !- Number of Vertices
  4.57, 95.43, 3.2,                       !- X,Y,Z Vertex 1 {m}
  4.57, 95.43, 0,                         !- X,Y,Z Vertex 2 {m}
  0, 100, 0,                              !- X,Y,Z Vertex 3 {m}
  0, 100, 3.2;                            !- X,Y,Z Vertex 4 {m}

OS:Surface,
  {a0dd2273-5059-41ed-806a-630324800912}, !- Handle
  Surface 4,                              !- Name
  Wall,                                   !- Surface Type
  ,                                       !- Construction Name
  {067b6842-6b0d-451c-a13a-7be0cbd6a2ff}, !- Space Name
  Surface,                                !- Outside Boundary Condition
  {0279e20a-d2ce-4220-bbe3-bc2cc25d259b}, !- Outside Boundary Condition Object
  NoSun,                                  !- Sun Exposure
  NoWind,                                 !- Wind Exposure
  ,                                       !- View Factor to Ground
  ,                                       !- Number of Vertices
  4.57, 4.57, 3.2,                        !- X,Y,Z Vertex 1 {m}
  4.57, 4.57, 0,                          !- X,Y,Z Vertex 2 {m}
  4.57, 95.43, 0,                         !- X,Y,Z Vertex 3 {m}
  4.57, 95.43, 3.2;                       !- X,Y,Z Vertex 4 {m}

OS:Surface,
  {d1e51fc8-c5a6-423b-a20d-a7aefaff45d9}, !- Handle
  Surface 5,                              !- Name
  Wall,                                   !- Surface Type
  ,                                       !- Construction Name
  {067b6842-6b0d-451c-a13a-7be0cbd6a2ff}, !- Space Name
  Surface,                                !- Outside Boundary Condition
  {74e3791d-2972-47ce-bcd3-caeadb35a21f}, !- Outside Boundary Condition Object
  NoSun,                                  !- Sun Exposure
  NoWind,                                 !- Wind Exposure
  ,                                       !- View Factor to Ground
  ,                                       !- Number of Vertices
  0, 0, 3.2,                              !- X,Y,Z Vertex 1 {m}
  0, 0, 0,                                !- X,Y,Z Vertex 2 {m}
  4.57, 4.57, 0,                          !- X,Y,Z Vertex 3 {m}
  4.57, 4.57, 3.2;                        !- X,Y,Z Vertex 4 {m}

OS:Surface,
  {97787ea0-3051-487d-8b51-aa4b1ae16261}, !- Handle
  Surface 6,                              !- Name
  RoofCeiling,                            !- Surface Type
  ,                                       !- Construction Name
  {067b6842-6b0d-451c-a13a-7be0cbd6a2ff}, !- Space Name
  Surface,                                !- Outside Boundary Condition
  {cd11e7cd-cc53-4ef7-8e6a-6cc9ffc9a930}, !- Outside Boundary Condition Object
  NoSun,                                  !- Sun Exposure
  NoWind,                                 !- Wind Exposure
  ,                                       !- View Factor to Ground
  ,                                       !- Number of Vertices
  4.57, 4.57, 3.2,                        !- X,Y,Z Vertex 1 {m}
  4.57, 95.43, 3.2,                       !- X,Y,Z Vertex 2 {m}
  0, 100, 3.2,                            !- X,Y,Z Vertex 3 {m}
  0, 0, 3.2;                              !- X,Y,Z Vertex 4 {m}

OS:Space,
  {8f57cace-34ec-4f36-b5c9-2d029b5d1a63}, !- Handle
  Story 1 North Perimeter Space,          !- Name
  ,                                       !- Space Type Name
  ,                                       !- Default Construction Set Name
  ,                                       !- Default Schedule Set Name
  -0,                                     !- Direction of Relative North {deg}
  4.57,                                   !- X Origin {m}
  95.43,                                  !- Y Origin {m}
  0,                                      !- Z Origin {m}
  {bb83b494-c6d4-49f3-b6cd-8e32146ad086}, !- Building Story Name
  {8593c961-9ae0-42c4-8787-347a0bc92c0c}; !- Thermal Zone Name

OS:Surface,
  {337173f1-95c3-4004-b65c-8ec96ca13111}, !- Handle
  Surface 7,                              !- Name
  Floor,                                  !- Surface Type
  ,                                       !- Construction Name
  {8f57cace-34ec-4f36-b5c9-2d029b5d1a63}, !- Space Name
  Ground,                                 !- Outside Boundary Condition
  ,                                       !- Outside Boundary Condition Object
  NoSun,                                  !- Sun Exposure
  NoWind,                                 !- Wind Exposure
  ,                                       !- View Factor to Ground
  ,                                       !- Number of Vertices
  -4.57, 4.56999999999999, 0,             !- X,Y,Z Vertex 1 {m}
  95.43, 4.56999999999999, 0,             !- X,Y,Z Vertex 2 {m}
  90.86, 0, 0,                            !- X,Y,Z Vertex 3 {m}
  0, 0, 0;                                !- X,Y,Z Vertex 4 {m}

OS:Surface,
  {8d30e94a-fe57-470d-a320-a11f98a0af2b}, !- Handle
  Surface 8,                              !- Name
  Wall,                                   !- Surface Type
  ,                                       !- Construction Name
  {8f57cace-34ec-4f36-b5c9-2d029b5d1a63}, !- Space Name
  Outdoors,                               !- Outside Boundary Condition
  ,                                       !- Outside Boundary Condition Object
  SunExposed,                             !- Sun Exposure
  WindExposed,                            !- Wind Exposure
  ,                                       !- View Factor to Ground
  ,                                       !- Number of Vertices
  95.43, 4.56999999999999, 3.2,           !- X,Y,Z Vertex 1 {m}
  95.43, 4.56999999999999, 0,             !- X,Y,Z Vertex 2 {m}
  -4.57, 4.56999999999999, 0,             !- X,Y,Z Vertex 3 {m}
  -4.57, 4.56999999999999, 3.2;           !- X,Y,Z Vertex 4 {m}

OS:Surface,
  {dbd48623-cd5d-45b5-ae92-8c40508e2533}, !- Handle
  Surface 9,                              !- Name
  Wall,                                   !- Surface Type
  ,                                       !- Construction Name
  {8f57cace-34ec-4f36-b5c9-2d029b5d1a63}, !- Space Name
  Surface,                                !- Outside Boundary Condition
  {9e179194-61bd-4f01-ba3e-6d079a5c25b9}, !- Outside Boundary Condition Object
  NoSun,                                  !- Sun Exposure
  NoWind,                                 !- Wind Exposure
  ,                                       !- View Factor to Ground
  ,                                       !- Number of Vertices
  90.86, 0, 3.2,                          !- X,Y,Z Vertex 1 {m}
  90.86, 0, 0,                            !- X,Y,Z Vertex 2 {m}
  95.43, 4.56999999999999, 0,             !- X,Y,Z Vertex 3 {m}
  95.43, 4.56999999999999, 3.2;           !- X,Y,Z Vertex 4 {m}

OS:Surface,
  {d0f4ba21-798e-40b8-ba33-fd94de279f28}, !- Handle
  Surface 10,                             !- Name
  Wall,                                   !- Surface Type
  ,                                       !- Construction Name
  {8f57cace-34ec-4f36-b5c9-2d029b5d1a63}, !- Space Name
  Surface,                                !- Outside Boundary Condition
  {da31cc58-471a-478c-832a-31b495400441}, !- Outside Boundary Condition Object
  NoSun,                                  !- Sun Exposure
  NoWind,                                 !- Wind Exposure
  ,                                       !- View Factor to Ground
  ,                                       !- Number of Vertices
  0, 0, 3.2,                              !- X,Y,Z Vertex 1 {m}
  0, 0, 0,                                !- X,Y,Z Vertex 2 {m}
  90.86, 0, 0,                            !- X,Y,Z Vertex 3 {m}
  90.86, 0, 3.2;                          !- X,Y,Z Vertex 4 {m}

OS:Surface,
  {bbad4089-1542-4196-8b1b-c07f92dbbbae}, !- Handle
  Surface 11,                             !- Name
  Wall,                                   !- Surface Type
  ,                                       !- Construction Name
  {8f57cace-34ec-4f36-b5c9-2d029b5d1a63}, !- Space Name
  Surface,                                !- Outside Boundary Condition
  {96fcb5dc-3843-4ec3-92da-fdb593222224}, !- Outside Boundary Condition Object
  NoSun,                                  !- Sun Exposure
  NoWind,                                 !- Wind Exposure
  ,                                       !- View Factor to Ground
  ,                                       !- Number of Vertices
  -4.57, 4.56999999999999, 3.2,           !- X,Y,Z Vertex 1 {m}
  -4.57, 4.56999999999999, 0,             !- X,Y,Z Vertex 2 {m}
  0, 0, 0,                                !- X,Y,Z Vertex 3 {m}
  0, 0, 3.2;                              !- X,Y,Z Vertex 4 {m}

OS:Surface,
  {95565432-262b-4e53-bc20-b7decc6726ec}, !- Handle
  Surface 12,                             !- Name
  RoofCeiling,                            !- Surface Type
  ,                                       !- Construction Name
  {8f57cace-34ec-4f36-b5c9-2d029b5d1a63}, !- Space Name
  Surface,                                !- Outside Boundary Condition
  {9875bb56-ed56-4692-b196-021d264e98f1}, !- Outside Boundary Condition Object
  NoSun,                                  !- Sun Exposure
  NoWind,                                 !- Wind Exposure
  ,                                       !- View Factor to Ground
  ,                                       !- Number of Vertices
  0, 0, 3.2,                              !- X,Y,Z Vertex 1 {m}
  90.86, 0, 3.2,                          !- X,Y,Z Vertex 2 {m}
  95.43, 4.56999999999999, 3.2,           !- X,Y,Z Vertex 3 {m}
  -4.57, 4.56999999999999, 3.2;           !- X,Y,Z Vertex 4 {m}

OS:Space,
  {a1ebc175-d911-418a-a6ed-f8c76b1c1024}, !- Handle
  Story 1 East Perimeter Space,           !- Name
  ,                                       !- Space Type Name
  ,                                       !- Default Construction Set Name
  ,                                       !- Default Schedule Set Name
  -0,                                     !- Direction of Relative North {deg}
  95.43,                                  !- X Origin {m}
  4.57,                                   !- Y Origin {m}
  0,                                      !- Z Origin {m}
  {bb83b494-c6d4-49f3-b6cd-8e32146ad086}, !- Building Story Name
  {10c12903-12fa-4432-82ff-db46f31a319f}; !- Thermal Zone Name

OS:Surface,
  {fe8ec9b9-d312-4e0c-854c-591a467172db}, !- Handle
  Surface 13,                             !- Name
  Floor,                                  !- Surface Type
  ,                                       !- Construction Name
  {a1ebc175-d911-418a-a6ed-f8c76b1c1024}, !- Space Name
  Ground,                                 !- Outside Boundary Condition
  ,                                       !- Outside Boundary Condition Object
  NoSun,                                  !- Sun Exposure
  NoWind,                                 !- Wind Exposure
  ,                                       !- View Factor to Ground
  ,                                       !- Number of Vertices
  4.56999999999999, 95.43, 0,             !- X,Y,Z Vertex 1 {m}
  4.56999999999999, -4.57, 0,             !- X,Y,Z Vertex 2 {m}
  0, 0, 0,                                !- X,Y,Z Vertex 3 {m}
  0, 90.86, 0;                            !- X,Y,Z Vertex 4 {m}

OS:Surface,
  {2ea25efd-78b4-4ef4-b969-6f8b73302c71}, !- Handle
  Surface 14,                             !- Name
  Wall,                                   !- Surface Type
  ,                                       !- Construction Name
  {a1ebc175-d911-418a-a6ed-f8c76b1c1024}, !- Space Name
  Outdoors,                               !- Outside Boundary Condition
  ,                                       !- Outside Boundary Condition Object
  SunExposed,                             !- Sun Exposure
  WindExposed,                            !- Wind Exposure
  ,                                       !- View Factor to Ground
  ,                                       !- Number of Vertices
  4.56999999999999, -4.57, 3.2,           !- X,Y,Z Vertex 1 {m}
  4.56999999999999, -4.57, 0,             !- X,Y,Z Vertex 2 {m}
  4.56999999999999, 95.43, 0,             !- X,Y,Z Vertex 3 {m}
  4.56999999999999, 95.43, 3.2;           !- X,Y,Z Vertex 4 {m}

OS:Surface,
  {d7c763d7-c419-44c2-a3a7-2997b96d1e95}, !- Handle
  Surface 15,                             !- Name
  Wall,                                   !- Surface Type
  ,                                       !- Construction Name
  {a1ebc175-d911-418a-a6ed-f8c76b1c1024}, !- Space Name
  Surface,                                !- Outside Boundary Condition
  {130688f1-e556-41d8-a416-fef010e3ceca}, !- Outside Boundary Condition Object
  NoSun,                                  !- Sun Exposure
  NoWind,                                 !- Wind Exposure
  ,                                       !- View Factor to Ground
  ,                                       !- Number of Vertices
  0, 0, 3.2,                              !- X,Y,Z Vertex 1 {m}
  0, 0, 0,                                !- X,Y,Z Vertex 2 {m}
  4.56999999999999, -4.57, 0,             !- X,Y,Z Vertex 3 {m}
  4.56999999999999, -4.57, 3.2;           !- X,Y,Z Vertex 4 {m}

OS:Surface,
  {fc762563-25ab-4b1a-9fa3-b08b768eff48}, !- Handle
  Surface 16,                             !- Name
  Wall,                                   !- Surface Type
  ,                                       !- Construction Name
  {a1ebc175-d911-418a-a6ed-f8c76b1c1024}, !- Space Name
  Surface,                                !- Outside Boundary Condition
  {25ca724c-fa48-4455-b5d1-aeeb4f38c092}, !- Outside Boundary Condition Object
  NoSun,                                  !- Sun Exposure
  NoWind,                                 !- Wind Exposure
  ,                                       !- View Factor to Ground
  ,                                       !- Number of Vertices
  0, 90.86, 3.2,                          !- X,Y,Z Vertex 1 {m}
  0, 90.86, 0,                            !- X,Y,Z Vertex 2 {m}
  0, 0, 0,                                !- X,Y,Z Vertex 3 {m}
  0, 0, 3.2;                              !- X,Y,Z Vertex 4 {m}

OS:Surface,
  {9e179194-61bd-4f01-ba3e-6d079a5c25b9}, !- Handle
  Surface 17,                             !- Name
  Wall,                                   !- Surface Type
  ,                                       !- Construction Name
  {a1ebc175-d911-418a-a6ed-f8c76b1c1024}, !- Space Name
  Surface,                                !- Outside Boundary Condition
  {dbd48623-cd5d-45b5-ae92-8c40508e2533}, !- Outside Boundary Condition Object
  NoSun,                                  !- Sun Exposure
  NoWind,                                 !- Wind Exposure
  ,                                       !- View Factor to Ground
  ,                                       !- Number of Vertices
  4.56999999999999, 95.43, 3.2,           !- X,Y,Z Vertex 1 {m}
  4.56999999999999, 95.43, 0,             !- X,Y,Z Vertex 2 {m}
  0, 90.86, 0,                            !- X,Y,Z Vertex 3 {m}
  0, 90.86, 3.2;                          !- X,Y,Z Vertex 4 {m}

OS:Surface,
  {0cfef591-7fad-4e49-968f-10fc610ceb0a}, !- Handle
  Surface 18,                             !- Name
  RoofCeiling,                            !- Surface Type
  ,                                       !- Construction Name
  {a1ebc175-d911-418a-a6ed-f8c76b1c1024}, !- Space Name
  Surface,                                !- Outside Boundary Condition
  {7c882245-7b9b-4bcd-a6ac-c1d2982d1b26}, !- Outside Boundary Condition Object
  NoSun,                                  !- Sun Exposure
  NoWind,                                 !- Wind Exposure
  ,                                       !- View Factor to Ground
  ,                                       !- Number of Vertices
  0, 90.86, 3.2,                          !- X,Y,Z Vertex 1 {m}
  0, 0, 3.2,                              !- X,Y,Z Vertex 2 {m}
  4.56999999999999, -4.57, 3.2,           !- X,Y,Z Vertex 3 {m}
  4.56999999999999, 95.43, 3.2;           !- X,Y,Z Vertex 4 {m}

OS:Space,
  {e96cacc0-37d5-4abf-874e-91e51160a5d3}, !- Handle
  Story 1 South Perimeter Space,          !- Name
  ,                                       !- Space Type Name
  ,                                       !- Default Construction Set Name
  ,                                       !- Default Schedule Set Name
  -0,                                     !- Direction of Relative North {deg}
  0,                                      !- X Origin {m}
  0,                                      !- Y Origin {m}
  0,                                      !- Z Origin {m}
  {bb83b494-c6d4-49f3-b6cd-8e32146ad086}, !- Building Story Name
  {6bc4df79-700b-4cb0-948b-719106276d3a}; !- Thermal Zone Name

OS:Surface,
  {9f0db61e-f9f9-420b-af1e-9c9473f20e24}, !- Handle
  Surface 19,                             !- Name
  Floor,                                  !- Surface Type
  ,                                       !- Construction Name
  {e96cacc0-37d5-4abf-874e-91e51160a5d3}, !- Space Name
  Ground,                                 !- Outside Boundary Condition
  ,                                       !- Outside Boundary Condition Object
  NoSun,                                  !- Sun Exposure
  NoWind,                                 !- Wind Exposure
  ,                                       !- View Factor to Ground
  ,                                       !- Number of Vertices
  100, 0, 0,                              !- X,Y,Z Vertex 1 {m}
  0, 0, 0,                                !- X,Y,Z Vertex 2 {m}
  4.57, 4.57, 0,                          !- X,Y,Z Vertex 3 {m}
  95.43, 4.57, 0;                         !- X,Y,Z Vertex 4 {m}

OS:Surface,
  {6853b9d9-55ec-4fd4-a2d8-9ed2769031aa}, !- Handle
  Surface 20,                             !- Name
  Wall,                                   !- Surface Type
  ,                                       !- Construction Name
  {e96cacc0-37d5-4abf-874e-91e51160a5d3}, !- Space Name
  Outdoors,                               !- Outside Boundary Condition
  ,                                       !- Outside Boundary Condition Object
  SunExposed,                             !- Sun Exposure
  WindExposed,                            !- Wind Exposure
  ,                                       !- View Factor to Ground
  ,                                       !- Number of Vertices
  0, 0, 3.2,                              !- X,Y,Z Vertex 1 {m}
  0, 0, 0,                                !- X,Y,Z Vertex 2 {m}
  100, 0, 0,                              !- X,Y,Z Vertex 3 {m}
  100, 0, 3.2;                            !- X,Y,Z Vertex 4 {m}

OS:Surface,
  {74e3791d-2972-47ce-bcd3-caeadb35a21f}, !- Handle
  Surface 21,                             !- Name
  Wall,                                   !- Surface Type
  ,                                       !- Construction Name
  {e96cacc0-37d5-4abf-874e-91e51160a5d3}, !- Space Name
  Surface,                                !- Outside Boundary Condition
  {d1e51fc8-c5a6-423b-a20d-a7aefaff45d9}, !- Outside Boundary Condition Object
  NoSun,                                  !- Sun Exposure
  NoWind,                                 !- Wind Exposure
  ,                                       !- View Factor to Ground
  ,                                       !- Number of Vertices
  4.57, 4.57, 3.2,                        !- X,Y,Z Vertex 1 {m}
  4.57, 4.57, 0,                          !- X,Y,Z Vertex 2 {m}
  0, 0, 0,                                !- X,Y,Z Vertex 3 {m}
  0, 0, 3.2;                              !- X,Y,Z Vertex 4 {m}

OS:Surface,
  {68537f6e-195e-4248-bfc8-67600dfa72f9}, !- Handle
  Surface 22,                             !- Name
  Wall,                                   !- Surface Type
  ,                                       !- Construction Name
  {e96cacc0-37d5-4abf-874e-91e51160a5d3}, !- Space Name
  Surface,                                !- Outside Boundary Condition
  {77a69035-5b95-4ec9-a5fe-5a978240ad40}, !- Outside Boundary Condition Object
  NoSun,                                  !- Sun Exposure
  NoWind,                                 !- Wind Exposure
  ,                                       !- View Factor to Ground
  ,                                       !- Number of Vertices
  95.43, 4.57, 3.2,                       !- X,Y,Z Vertex 1 {m}
  95.43, 4.57, 0,                         !- X,Y,Z Vertex 2 {m}
  4.57, 4.57, 0,                          !- X,Y,Z Vertex 3 {m}
  4.57, 4.57, 3.2;                        !- X,Y,Z Vertex 4 {m}

OS:Surface,
  {130688f1-e556-41d8-a416-fef010e3ceca}, !- Handle
  Surface 23,                             !- Name
  Wall,                                   !- Surface Type
  ,                                       !- Construction Name
  {e96cacc0-37d5-4abf-874e-91e51160a5d3}, !- Space Name
  Surface,                                !- Outside Boundary Condition
  {d7c763d7-c419-44c2-a3a7-2997b96d1e95}, !- Outside Boundary Condition Object
  NoSun,                                  !- Sun Exposure
  NoWind,                                 !- Wind Exposure
  ,                                       !- View Factor to Ground
  ,                                       !- Number of Vertices
  100, 0, 3.2,                            !- X,Y,Z Vertex 1 {m}
  100, 0, 0,                              !- X,Y,Z Vertex 2 {m}
  95.43, 4.57, 0,                         !- X,Y,Z Vertex 3 {m}
  95.43, 4.57, 3.2;                       !- X,Y,Z Vertex 4 {m}

OS:Surface,
  {0ae656f2-78ec-43b5-96a9-02ffc8fb6ef8}, !- Handle
  Surface 24,                             !- Name
  RoofCeiling,                            !- Surface Type
  ,                                       !- Construction Name
  {e96cacc0-37d5-4abf-874e-91e51160a5d3}, !- Space Name
  Surface,                                !- Outside Boundary Condition
  {0b453f08-9038-47ac-826d-40748962f446}, !- Outside Boundary Condition Object
  NoSun,                                  !- Sun Exposure
  NoWind,                                 !- Wind Exposure
  ,                                       !- View Factor to Ground
  ,                                       !- Number of Vertices
  95.43, 4.57, 3.2,                       !- X,Y,Z Vertex 1 {m}
  4.57, 4.57, 3.2,                        !- X,Y,Z Vertex 2 {m}
  0, 0, 3.2,                              !- X,Y,Z Vertex 3 {m}
  100, 0, 3.2;                            !- X,Y,Z Vertex 4 {m}

OS:Space,
  {1fef9207-8ad4-4e3c-aee7-7643ddb19042}, !- Handle
  Story 1 Core Space,                     !- Name
  ,                                       !- Space Type Name
  ,                                       !- Default Construction Set Name
  ,                                       !- Default Schedule Set Name
  -0,                                     !- Direction of Relative North {deg}
  4.57,                                   !- X Origin {m}
  4.57,                                   !- Y Origin {m}
  0,                                      !- Z Origin {m}
  {bb83b494-c6d4-49f3-b6cd-8e32146ad086}, !- Building Story Name
  {ad8e70ac-0817-43a7-8ab5-e093c7418ce1}; !- Thermal Zone Name

OS:Surface,
  {a0cdca37-1c1b-4d29-9815-9fb4b4181396}, !- Handle
  Surface 25,                             !- Name
  Floor,                                  !- Surface Type
  ,                                       !- Construction Name
  {1fef9207-8ad4-4e3c-aee7-7643ddb19042}, !- Space Name
  Ground,                                 !- Outside Boundary Condition
  ,                                       !- Outside Boundary Condition Object
  NoSun,                                  !- Sun Exposure
  NoWind,                                 !- Wind Exposure
  ,                                       !- View Factor to Ground
  ,                                       !- Number of Vertices
  0, 0, 0,                                !- X,Y,Z Vertex 1 {m}
  0, 90.86, 0,                            !- X,Y,Z Vertex 2 {m}
  90.86, 90.86, 0,                        !- X,Y,Z Vertex 3 {m}
  90.86, 0, 0;                            !- X,Y,Z Vertex 4 {m}

OS:Surface,
  {0279e20a-d2ce-4220-bbe3-bc2cc25d259b}, !- Handle
  Surface 26,                             !- Name
  Wall,                                   !- Surface Type
  ,                                       !- Construction Name
  {1fef9207-8ad4-4e3c-aee7-7643ddb19042}, !- Space Name
  Surface,                                !- Outside Boundary Condition
  {a0dd2273-5059-41ed-806a-630324800912}, !- Outside Boundary Condition Object
  NoSun,                                  !- Sun Exposure
  NoWind,                                 !- Wind Exposure
  ,                                       !- View Factor to Ground
  ,                                       !- Number of Vertices
  0, 90.86, 3.2,                          !- X,Y,Z Vertex 1 {m}
  0, 90.86, 0,                            !- X,Y,Z Vertex 2 {m}
  0, 0, 0,                                !- X,Y,Z Vertex 3 {m}
  0, 0, 3.2;                              !- X,Y,Z Vertex 4 {m}

OS:Surface,
  {da31cc58-471a-478c-832a-31b495400441}, !- Handle
  Surface 27,                             !- Name
  Wall,                                   !- Surface Type
  ,                                       !- Construction Name
  {1fef9207-8ad4-4e3c-aee7-7643ddb19042}, !- Space Name
  Surface,                                !- Outside Boundary Condition
  {d0f4ba21-798e-40b8-ba33-fd94de279f28}, !- Outside Boundary Condition Object
  NoSun,                                  !- Sun Exposure
  NoWind,                                 !- Wind Exposure
  ,                                       !- View Factor to Ground
  ,                                       !- Number of Vertices
  90.86, 90.86, 3.2,                      !- X,Y,Z Vertex 1 {m}
  90.86, 90.86, 0,                        !- X,Y,Z Vertex 2 {m}
  0, 90.86, 0,                            !- X,Y,Z Vertex 3 {m}
  0, 90.86, 3.2;                          !- X,Y,Z Vertex 4 {m}

OS:Surface,
  {25ca724c-fa48-4455-b5d1-aeeb4f38c092}, !- Handle
  Surface 28,                             !- Name
  Wall,                                   !- Surface Type
  ,                                       !- Construction Name
  {1fef9207-8ad4-4e3c-aee7-7643ddb19042}, !- Space Name