
OS:Version,
  {903a4d38-e2aa-49e9-9e26-9935009e055b}, !- Handle
  2.6.0;                                  !- Version Identifier

OS:BuildingStory,
  {270157c6-581f-4745-96dc-7554c587deb6}, !- Handle
  Story 1,                                !- Name
  0,                                      !- Nominal Z Coordinate {m}
  3.2,                                    !- Nominal Floor to Floor Height {m}
  ,                                       !- Default Construction Set Name
  ,                                       !- Default Schedule Set Name
  ;                                       !- Group Rendering Name

OS:Space,
  {6ef714ef-5efc-4062-b862-09bb07c70d78}, !- Handle
  Story 1 West Outer Perimeter Space,     !- Name
  ,                                       !- Space Type Name
  ,                                       !- Default Construction Set Name
  ,                                       !- Default Schedule Set Name
  -0,                                     !- Direction of Relative North {deg}
  0,                                      !- X Origin {m}
  0,                                      !- Y Origin {m}
  0,                                      !- Z Origin {m}
  {270157c6-581f-4745-96dc-7554c587deb6}; !- Building Story Name

OS:Surface,
  {b250f361-5732-447c-b20e-bdf7e9f25452}, !- Handle
  Surface 1,                              !- Name
  Floor,                                  !- Surface Type
  ,                                       !- Construction Name
  {6ef714ef-5efc-4062-b862-09bb07c70d78}, !- Space Name
  Ground,                                 !- Outside Boundary Condition
  ,                                       !- Outside Boundary Condition Object
  NoSun,                                  !- Sun Exposure
  NoWind,                                 !- Wind Exposure
  ,                                       !- View Factor to Ground
  ,                                       !- Number of Vertices
  0, 0, 0,                                !- X,Y,Z Vertex 1 {m}
  0, 298.142396999972, 0,                 !- X,Y,Z Vertex 2 {m}
  4.57, 293.572396999972, 0,              !- X,Y,Z Vertex 3 {m}
  4.57, 4.57, 0;                          !- X,Y,Z Vertex 4 {m}

OS:Surface,
  {77f7965d-e72d-49d7-8cb8-6056f6383f41}, !- Handle
  Surface 2,                              !- Name
  Wall,                                   !- Surface Type
  ,                                       !- Construction Name
  {6ef714ef-5efc-4062-b862-09bb07c70d78}, !- Space Name
  Outdoors,                               !- Outside Boundary Condition
  ,                                       !- Outside Boundary Condition Object
  SunExposed,                             !- Sun Exposure
  WindExposed,                            !- Wind Exposure
  ,                                       !- View Factor to Ground
  ,                                       !- Number of Vertices
  0, 298.142396999972, 3.2,               !- X,Y,Z Vertex 1 {m}
  0, 298.142396999972, 0,                 !- X,Y,Z Vertex 2 {m}
  0, 0, 0,                                !- X,Y,Z Vertex 3 {m}
  0, 0, 3.2;                              !- X,Y,Z Vertex 4 {m}

OS:Surface,
  {56258677-9848-4203-af19-6ded410e7425}, !- Handle
  Surface 3,                              !- Name
  Wall,                                   !- Surface Type
  ,                                       !- Construction Name
  {6ef714ef-5efc-4062-b862-09bb07c70d78}, !- Space Name
  Surface,                                !- Outside Boundary Condition
  {082ce515-fdff-4343-a4d4-33880fbf2c43}, !- Outside Boundary Condition Object
  NoSun,                                  !- Sun Exposure
  NoWind,                                 !- Wind Exposure
  ,                                       !- View Factor to Ground
  ,                                       !- Number of Vertices
  4.57, 293.572396999972, 3.2,            !- X,Y,Z Vertex 1 {m}
  4.57, 293.572396999972, 0,              !- X,Y,Z Vertex 2 {m}
  0, 298.142396999972, 0,                 !- X,Y,Z Vertex 3 {m}
  0, 298.142396999972, 3.2;               !- X,Y,Z Vertex 4 {m}

OS:Surface,
  {86d5c38d-d4ed-417c-b048-4e94965e27f2}, !- Handle
  Surface 4,                              !- Name
  Wall,                                   !- Surface Type
  ,                                       !- Construction Name
  {6ef714ef-5efc-4062-b862-09bb07c70d78}, !- Space Name
  Surface,                                !- Outside Boundary Condition
  {88f16567-0ca7-4253-a20c-5adc54a15d6a}, !- Outside Boundary Condition Object
  NoSun,                                  !- Sun Exposure
  NoWind,                                 !- Wind Exposure
  ,                                       !- View Factor to Ground
  ,                                       !- Number of Vertices
  4.57, 4.57, 3.2,                        !- X,Y,Z Vertex 1 {m}
  4.57, 4.57, 0,                          !- X,Y,Z Vertex 2 {m}
  4.57, 293.572396999972, 0,              !- X,Y,Z Vertex 3 {m}
  4.57, 293.572396999972, 3.2;            !- X,Y,Z Vertex 4 {m}

OS:Surface,
  {cef7fa58-ca13-4d97-a00d-939c86a1013e}, !- Handle
  Surface 5,                              !- Name
  Wall,                                   !- Surface Type
  ,                                       !- Construction Name
  {6ef714ef-5efc-4062-b862-09bb07c70d78}, !- Space Name
  Surface,                                !- Outside Boundary Condition
  {8bf7de87-e284-434c-8630-3f1c2be6b3ca}, !- Outside Boundary Condition Object
  NoSun,                                  !- Sun Exposure
  NoWind,                                 !- Wind Exposure
  ,                                       !- View Factor to Ground
  ,                                       !- Number of Vertices
  0, 0, 3.2,                              !- X,Y,Z Vertex 1 {m}
  0, 0, 0,                                !- X,Y,Z Vertex 2 {m}
  4.57, 4.57, 0,                          !- X,Y,Z Vertex 3 {m}
  4.57, 4.57, 3.2;                        !- X,Y,Z Vertex 4 {m}

OS:Surface,
  {2075ca2d-985d-4f00-900f-0ae98cc9a10f}, !- Handle
  Surface 6,                              !- Name
  RoofCeiling,                            !- Surface Type
  ,                                       !- Construction Name
  {6ef714ef-5efc-4062-b862-09bb07c70d78}, !- Space Name
  Surface,                                !- Outside Boundary Condition
  {ae765fa0-9705-486b-889b-7ed2b0d585f3}, !- Outside Boundary Condition Object
  NoSun,                                  !- Sun Exposure
  NoWind,                                 !- Wind Exposure
  ,                                       !- View Factor to Ground
  ,                                       !- Number of Vertices
  4.57, 4.57, 3.2,                        !- X,Y,Z Vertex 1 {m}
  4.57, 293.572396999972, 3.2,            !- X,Y,Z Vertex 2 {m}
  0, 298.142396999972, 3.2,               !- X,Y,Z Vertex 3 {m}
  0, 0, 3.2;                              !- X,Y,Z Vertex 4 {m}

OS:Space,
  {b8ed5f41-99bf-4ef7-b2c3-bd577ca80ff0}, !- Handle
  Story 1 North Outer Perimeter Space,    !- Name
  ,                                       !- Space Type Name
  ,                                       !- Default Construction Set Name
  ,                                       !- Default Schedule Set Name
  -0,                                     !- Direction of Relative North {deg}
  0,                                      !- X Origin {m}
  0,                                      !- Y Origin {m}
  0,                                      !- Z Origin {m}
  {270157c6-581f-4745-96dc-7554c587deb6}; !- Building Story Name

OS:Surface,
  {947e93bb-c622-4a27-96b9-4dbdca7f86b5}, !- Handle
  Surface 7,                              !- Name
  Floor,                                  !- Surface Type
  ,                                       !- Construction Name
  {b8ed5f41-99bf-4ef7-b2c3-bd577ca80ff0}, !- Space Name
  Ground,                                 !- Outside Boundary Condition
  ,                                       !- Outside Boundary Condition Object
  NoSun,                                  !- Sun Exposure
  NoWind,                                 !- Wind Exposure
  ,                                       !- View Factor to Ground
  ,                                       !- Number of Vertices
  0, 298.142396999972, 0,                 !- X,Y,Z Vertex 1 {m}
  149.071198499986, 298.142396999972, 0,  !- X,Y,Z Vertex 2 {m}
  144.501198499986, 293.572396999972, 0,  !- X,Y,Z Vertex 3 {m}
  4.57, 293.572396999972, 0;              !- X,Y,Z Vertex 4 {m}

OS:Surface,
  {c5ecb61b-a96e-4aae-a489-ea2bcad69181}, !- Handle
  Surface 8,                              !- Name
  Wall,                                   !- Surface Type
  ,                                       !- Construction Name
  {b8ed5f41-99bf-4ef7-b2c3-bd577ca80ff0}, !- Space Name
  Outdoors,                               !- Outside Boundary Condition
  ,                                       !- Outside Boundary Condition Object
  SunExposed,                             !- Sun Exposure
  WindExposed,                            !- Wind Exposure
  ,                                       !- View Factor to Ground
  ,                                       !- Number of Vertices
  149.071198499986, 298.142396999972, 3.2, !- X,Y,Z Vertex 1 {m}
  149.071198499986, 298.142396999972, 0,  !- X,Y,Z Vertex 2 {m}
  0, 298.142396999972, 0,                 !- X,Y,Z Vertex 3 {m}
  0, 298.142396999972, 3.2;               !- X,Y,Z Vertex 4 {m}

OS:Surface,
  {d24b7fbd-6642-4d70-8f90-ae6437909fa1}, !- Handle
  Surface 9,                              !- Name
  Wall,                                   !- Surface Type
  ,                                       !- Construction Name
  {b8ed5f41-99bf-4ef7-b2c3-bd577ca80ff0}, !- Space Name
  Surface,                                !- Outside Boundary Condition
  {6c31b4f0-5aad-4386-9cba-8e016e63d8a7}, !- Outside Boundary Condition Object
  NoSun,                                  !- Sun Exposure
  NoWind,                                 !- Wind Exposure
  ,                                       !- View Factor to Ground
  ,                                       !- Number of Vertices
  144.501198499986, 293.572396999972, 3.2, !- X,Y,Z Vertex 1 {m}
  144.501198499986, 293.572396999972, 0,  !- X,Y,Z Vertex 2 {m}
  149.071198499986, 298.142396999972, 0,  !- X,Y,Z Vertex 3 {m}
  149.071198499986, 298.142396999972, 3.2; !- X,Y,Z Vertex 4 {m}

OS:Surface,
  {57731f70-2c19-4c80-abc3-496b7d89e67c}, !- Handle
  Surface 10,                             !- Name
  Wall,                                   !- Surface Type
  ,                                       !- Construction Name
  {b8ed5f41-99bf-4ef7-b2c3-bd577ca80ff0}, !- Space Name
  Surface,                                !- Outside Boundary Condition
  {107cad39-a9ab-484a-bc21-bad332ca934b}, !- Outside Boundary Condition Object
  NoSun,                                  !- Sun Exposure
  NoWind,                                 !- Wind Exposure
  ,                                       !- View Factor to Ground
  ,                                       !- Number of Vertices
  4.57, 293.572396999972, 3.2,            !- X,Y,Z Vertex 1 {m}
  4.57, 293.572396999972, 0,              !- X,Y,Z Vertex 2 {m}
  144.501198499986, 293.572396999972, 0,  !- X,Y,Z Vertex 3 {m}
  144.501198499986, 293.572396999972, 3.2; !- X,Y,Z Vertex 4 {m}

OS:Surface,
  {082ce515-fdff-4343-a4d4-33880fbf2c43}, !- Handle
  Surface 11,                             !- Name
  Wall,                                   !- Surface Type
  ,                                       !- Construction Name
  {b8ed5f41-99bf-4ef7-b2c3-bd577ca80ff0}, !- Space Name
  Surface,                                !- Outside Boundary Condition
  {56258677-9848-4203-af19-6ded410e7425}, !- Outside Boundary Condition Object
  NoSun,                                  !- Sun Exposure
  NoWind,                                 !- Wind Exposure
  ,                                       !- View Factor to Ground
  ,                                       !- Number of Vertices
  0, 298.142396999972, 3.2,               !- X,Y,Z Vertex 1 {m}
  0, 298.142396999972, 0,                 !- X,Y,Z Vertex 2 {m}
  4.57, 293.572396999972, 0,              !- X,Y,Z Vertex 3 {m}
  4.57, 293.572396999972, 3.2;            !- X,Y,Z Vertex 4 {m}

OS:Surface,
  {4c136799-f1c0-41bb-aba9-8883d6515608}, !- Handle
  Surface 12,                             !- Name
  RoofCeiling,                            !- Surface Type
  ,                                       !- Construction Name
  {b8ed5f41-99bf-4ef7-b2c3-bd577ca80ff0}, !- Space Name
  Surface,                                !- Outside Boundary Condition
  {2b125b79-41ac-4133-b888-753b4167397f}, !- Outside Boundary Condition Object
  NoSun,                                  !- Sun Exposure
  NoWind,                                 !- Wind Exposure
  ,                                       !- View Factor to Ground
  ,                                       !- Number of Vertices
  4.57, 293.572396999972, 3.2,            !- X,Y,Z Vertex 1 {m}
  144.501198499986, 293.572396999972, 3.2, !- X,Y,Z Vertex 2 {m}
  149.071198499986, 298.142396999972, 3.2, !- X,Y,Z Vertex 3 {m}
  0, 298.142396999972, 3.2;               !- X,Y,Z Vertex 4 {m}

OS:Space,
  {3203b564-de13-49b4-bad4-a058c8e641cd}, !- Handle
  Story 1 East Outer Perimeter Space,     !- Name
  ,                                       !- Space Type Name
  ,                                       !- Default Construction Set Name
  ,                                       !- Default Schedule Set Name
  -0,                                     !- Direction of Relative North {deg}
  0,                                      !- X Origin {m}
  0,                                      !- Y Origin {m}
  0,                                      !- Z Origin {m}
  {270157c6-581f-4745-96dc-7554c587deb6}; !- Building Story Name

OS:Surface,
  {94a2c1f1-db09-4010-8db6-87512fd0a321}, !- Handle
  Surface 13,                             !- Name
  Floor,                                  !- Surface Type
  ,                                       !- Construction Name
  {3203b564-de13-49b4-bad4-a058c8e641cd}, !- Space Name
  Ground,                                 !- Outside Boundary Condition
  ,                                       !- Outside Boundary Condition Object
  NoSun,                                  !- Sun Exposure
  NoWind,                                 !- Wind Exposure
  ,                                       !- View Factor to Ground
  ,                                       !- Number of Vertices
  149.071198499986, 298.142396999972, 0,  !- X,Y,Z Vertex 1 {m}
  149.071198499986, 0, 0,                 !- X,Y,Z Vertex 2 {m}
  144.501198499986, 4.57, 0,              !- X,Y,Z Vertex 3 {m}
  144.501198499986, 293.572396999972, 0;  !- X,Y,Z Vertex 4 {m}

OS:Surface,
  {9071ee68-47ee-4106-b1ed-0f827c14775b}, !- Handle
  Surface 14,                             !- Name
  Wall,                                   !- Surface Type
  ,                                       !- Construction Name
  {3203b564-de13-49b4-bad4-a058c8e641cd}, !- Space Name
  Outdoors,                               !- Outside Boundary Condition
  ,                                       !- Outside Boundary Condition Object
  SunExposed,                             !- Sun Exposure
  WindExposed,                            !- Wind Exposure
  ,                                       !- View Factor to Ground
  ,                                       !- Number of Vertices
  149.071198499986, 0, 3.2,               !- X,Y,Z Vertex 1 {m}
  149.071198499986, 0, 0,                 !- X,Y,Z Vertex 2 {m}
  149.071198499986, 298.142396999972, 0,  !- X,Y,Z Vertex 3 {m}
  149.071198499986, 298.142396999972, 3.2; !- X,Y,Z Vertex 4 {m}

OS:Surface,
  {3defd3e1-80d1-49a5-be53-1527077a4d6d}, !- Handle
  Surface 15,                             !- Name
  Wall,                                   !- Surface Type
  ,                                       !- Construction Name
  {3203b564-de13-49b4-bad4-a058c8e641cd}, !- Space Name
  Surface,                                !- Outside Boundary Condition
  {1b513eec-b0d1-4acb-bbbd-e8e8cda0eb81}, !- Outside Boundary Condition Object
  NoSun,                                  !- Sun Exposure
  NoWind,                                 !- Wind Exposure
  ,                                       !- View Factor to Ground
  ,                                       !- Number of Vertices
  144.501198499986, 4.57, 3.2,            !- X,Y,Z Vertex 1 {m}
  144.501198499986, 4.57, 0,              !- X,Y,Z Vertex 2 {m}
  149.071198499986, 0, 0,                 !- X,Y,Z Vertex 3 {m}
  149.071198499986, 0, 3.2;               !- X,Y,Z Vertex 4 {m}

OS:Surface,
  {24680cc0-cffb-4b24-b687-7c0d90c0f789}, !- Handle
  Surface 16,                             !- Name
  Wall,                                   !- Surface Type
  ,                                       !- Construction Name
  {3203b564-de13-49b4-bad4-a058c8e641cd}, !- Space Name
  Surface,                                !- Outside Boundary Condition
  {f1cf3bce-b91b-4d8d-8f8e-973d57ac4cb4}, !- Outside Boundary Condition Object
  NoSun,                                  !- Sun Exposure
  NoWind,                                 !- Wind Exposure
  ,                                       !- View Factor to Ground
  ,                                       !- Number of Vertices
  144.501198499986, 293.572396999972, 3.2, !- X,Y,Z Vertex 1 {m}
  144.501198499986, 293.572396999972, 0,  !- X,Y,Z Vertex 2 {m}
  144.501198499986, 4.57, 0,              !- X,Y,Z Vertex 3 {m}
  144.501198499986, 4.57, 3.2;            !- X,Y,Z Vertex 4 {m}

OS:Surface,
  {6c31b4f0-5aad-4386-9cba-8e016e63d8a7}, !- Handle
  Surface 17,                             !- Name
  Wall,                                   !- Surface Type
  ,                                       !- Construction Name
  {3203b564-de13-49b4-bad4-a058c8e641cd}, !- Space Name
  Surface,                                !- Outside Boundary Condition
  {d24b7fbd-6642-4d70-8f90-ae6437909fa1}, !- Outside Boundary Condition Object
  NoSun,                                  !- Sun Exposure
  NoWind,                                 !- Wind Exposure
  ,                                       !- View Factor to Ground
  ,                                       !- Number of Vertices
  149.071198499986, 298.142396999972, 3.2, !- X,Y,Z Vertex 1 {m}
  149.071198499986, 298.142396999972, 0,  !- X,Y,Z Vertex 2 {m}
  144.501198499986, 293.572396999972, 0,  !- X,Y,Z Vertex 3 {m}
  144.501198499986, 293.572396999972, 3.2; !- X,Y,Z Vertex 4 {m}

OS:Surface,
  {9992e65e-2cb0-42b1-9743-dc8134175cae}, !- Handle
  Surface 18,                             !- Name
  RoofCeiling,                            !- Surface Type
  ,                                       !- Construction Name
  {3203b564-de13-49b4-bad4-a058c8e641cd}, !- Space Name
  Surface,                                !- Outside Boundary Condition
  {b5f5995d-98e0-4ef4-8f11-8758491bb9c5}, !- Outside Boundary Condition Object
  NoSun,                                  !- Sun Exposure
  NoWind,                                 !- Wind Exposure
  ,                                       !- View Factor to Ground
  ,                                       !- Number of Vertices
  144.501198499986, 293.572396999972, 3.2, !- X,Y,Z Vertex 1 {m}
  144.501198499986, 4.57, 3.2,            !- X,Y,Z Vertex 2 {m}
  149.071198499986, 0, 3.2,               !- X,Y,Z Vertex 3 {m}
  149.071198499986, 298.142396999972, 3.2; !- X,Y,Z Vertex 4 {m}

OS:Space,
  {3f1abf19-7385-40d9-af62-a143cf9588c8}, !- Handle
  Story 1 South Outer Perimeter Space,    !- Name
  ,                                       !- Space Type Name
  ,                                       !- Default Construction Set Name
  ,                                       !- Default Schedule Set Name
  -0,                                     !- Direction of Relative North {deg}
  0,                                      !- X Origin {m}
  0,                                      !- Y Origin {m}
  0,                                      !- Z Origin {m}
  {270157c6-581f-4745-96dc-7554c587deb6}; !- Building Story Name

OS:Surface,
  {e4d529a2-5393-4b93-a80b-a7234612c741}, !- Handle
  Surface 19,                             !- Name
  Floor,                                  !- Surface Type
  ,                                       !- Construction Name
  {3f1abf19-7385-40d9-af62-a143cf9588c8}, !- Space Name
  Ground,                                 !- Outside Boundary Condition
  ,                                       !- Outside Boundary Condition Object
  NoSun,                                  !- Sun Exposure
  NoWind,                                 !- Wind Exposure
  ,                                       !- View Factor to Ground
  ,                                       !- Number of Vertices
  149.071198499986, 0, 0,                 !- X,Y,Z Vertex 1 {m}
  0, 0, 0,                                !- X,Y,Z Vertex 2 {m}
  4.57, 4.57, 0,                          !- X,Y,Z Vertex 3 {m}
  144.501198499986, 4.57, 0;              !- X,Y,Z Vertex 4 {m}

OS:Surface,
  {d0e5fab7-5e9c-454a-90ad-8e2aaa60bc5d}, !- Handle
  Surface 20,                             !- Name
  Wall,                                   !- Surface Type
  ,                                       !- Construction Name
  {3f1abf19-7385-40d9-af62-a143cf9588c8}, !- Space Name
  Outdoors,                               !- Outside Boundary Condition
  ,                                       !- Outside Boundary Condition Object
  SunExposed,                             !- Sun Exposure
  WindExposed,                            !- Wind Exposure
  ,                                       !- View Factor to Ground
  ,                                       !- Number of Vertices
  0, 0, 3.2,                              !- X,Y,Z Vertex 1 {m}
  0, 0, 0,                                !- X,Y,Z Vertex 2 {m}
  149.071198499986, 0, 0,                 !- X,Y,Z Vertex 3 {m}
  149.071198499986, 0, 3.2;               !- X,Y,Z Vertex 4 {m}

OS:Surface,
  {8bf7de87-e284-434c-8630-3f1c2be6b3ca}, !- Handle
  Surface 21,                             !- Name
  Wall,                                   !- Surface Type
  ,                                       !- Construction Name
  {3f1abf19-7385-40d9-af62-a143cf9588c8}, !- Space Name
  Surface,                                !- Outside Boundary Condition
  {cef7fa58-ca13-4d97-a00d-939c86a1013e}, !- Outside Boundary Condition Object
  NoSun,                                  !- Sun Exposure
  NoWind,                                 !- Wind Exposure
  ,                                       !- View Factor to Ground
  ,                                       !- Number of Vertices
  4.57, 4.57, 3.2,                        !- X,Y,Z Vertex 1 {m}
  4.57, 4.57, 0,                          !- X,Y,Z Vertex 2 {m}
  0, 0, 0,                                !- X,Y,Z Vertex 3 {m}
  0, 0, 3.2;                              !- X,Y,Z Vertex 4 {m}

OS:Surface,
  {9acdfe19-6776-4344-b4d0-6705b7b0a3e3}, !- Handle
  Surface 22,                             !- Name
  Wall,                                   !- Surface Type
  ,                                       !- Construction Name
  {3f1abf19-7385-40d9-af62-a143cf9588c8}, !- Space Name
  Surface,                                !- Outside Boundary Condition
  {879a3dd6-41cc-45e1-b1ab-ff5f4f60212e}, !- Outside Boundary Condition Object
  NoSun,                                  !- Sun Exposure
  NoWind,                                 !- Wind Exposure
  ,                                       !- View Factor to Ground
  ,                                       !- Number of Vertices
  144.501198499986, 4.57, 3.2,            !- X,Y,Z Vertex 1 {m}
  144.501198499986, 4.57, 0,              !- X,Y,Z Vertex 2 {m}
  4.57, 4.57, 0,                          !- X,Y,Z Vertex 3 {m}
  4.57, 4.57, 3.2;                        !- X,Y,Z Vertex 4 {m}

OS:Surface,
  {1b513eec-b0d1-4acb-bbbd-e8e8cda0eb81}, !- Handle
  Surface 23,                             !- Name
  Wall,                                   !- Surface Type
  ,                                       !- Construction Name
  {3f1abf19-7385-40d9-af62-a143cf9588c8}, !- Space Name
  Surface,                                !- Outside Boundary Condition
  {3defd3e1-80d1-49a5-be53-1527077a4d6d}, !- Outside Boundary Condition Object
  NoSun,                                  !- Sun Exposure
  NoWind,                                 !- Wind Exposure
  ,                                       !- View Factor to Ground
  ,                                       !- Number of Vertices
  149.071198499986, 0, 3.2,               !- X,Y,Z Vertex 1 {m}
  149.071198499986, 0, 0,                 !- X,Y,Z Vertex 2 {m}
  144.501198499986, 4.57, 0,              !- X,Y,Z Vertex 3 {m}
  144.501198499986, 4.57, 3.2;            !- X,Y,Z Vertex 4 {m}

OS:Surface,
  {b0a7efa5-e99f-441e-9914-d8070dbfce8a}, !- Handle
  Surface 24,                             !- Name
  RoofCeiling,                            !- Surface Type
  ,                                       !- Construction Name
  {3f1abf19-7385-40d9-af62-a143cf9588c8}, !- Space Name
  Surface,                                !- Outside Boundary Condition
  {39508652-21bf-47f6-bf21-70e42d4d5099}, !- Outside Boundary Condition Object
  NoSun,                                  !- Sun Exposure
  NoWind,                                 !- Wind Exposure
  ,                                       !- View Factor to Ground
  ,                                       !- Number of Vertices
  144.501198499986, 4.57, 3.2,            !- X,Y,Z Vertex 1 {m}
  4.57, 4.57, 3.2,                        !- X,Y,Z Vertex 2 {m}
  0, 0, 3.2,                              !- X,Y,Z Vertex 3 {m}
  149.071198499986, 0, 3.2;               !- X,Y,Z Vertex 4 {m}

OS:Space,
  {3c3f6880-43fc-4bed-b301-3634ee06c312}, !- Handle
  Story 1 West Core Space,                !- Name
  ,                                       !- Space Type Name
  ,                                       !- Default Construction Set Name
  ,                                       !- Default Schedule Set Name
  -0,                                     !- Direction of Relative North {deg}
  0,                                      !- X Origin {m}
  0,                                      !- Y Origin {m}
  0,                                      !- Z Origin {m}
  {270157c6-581f-4745-96dc-7554c587deb6}; !- Building Story Name

OS:Surface,
  {090624c2-5872-4732-94be-9a1a900ecf07}, !- Handle
  Surface 25,                             !- Name
  Floor,                                  !- Surface Type
  ,                                       !- Construction Name
  {3c3f6880-43fc-4bed-b301-3634ee06c312}, !- Space Name
  Ground,                                 !- Outside Boundary Condition
  ,                                       !- Outside Boundary Condition Object
  NoSun,                                  !- Sun Exposure
  NoWind,                                 !- Wind Exposure
  ,                                       !- View Factor to Ground
  ,                                       !- Number of Vertices
  4.57, 4.57, 0,                          !- X,Y,Z Vertex 1 {m}
  4.57, 293.572396999972, 0,              !- X,Y,Z Vertex 2 {m}
  45.1203994999953, 203.331597999981, 0,  !- X,Y,Z Vertex 3 {m}
  45.1203994999953, 94.8107989999907, 0;  !- X,Y,Z Vertex 4 {m}

OS:Surface,
  {88f16567-0ca7-4253-a20c-5adc54a15d6a}, !- Handle
  Surface 26,                             !- Name
  Wall,                                   !- Surface Type
  ,                                       !- Construction Name
  {3c3f6880-43fc-4bed-b301-3634ee06c312}, !- Space Name
  Surface,                                !- Outside Boundary Condition
  {86d5c38d-d4ed-417c-b048-4e94965e27f2}, !- Outside Boundary Condition Object
  NoSun,                                  !- Sun Exposure
  NoWind,                                 !- Wind Exposure
  ,                                       !- View Factor to Ground
  ,                                       !- Number of Vertices
  4.57, 293.572396999972, 3.2,            !- X,Y,Z Vertex 1 {m}
  4.57, 293.572396999972, 0,              !- X,Y,Z Vertex 2 {m}
  4.57, 4.57, 0,                          !- X,Y,Z Vertex 3 {m}
  4.57, 4.57, 3.2;                        !- X,Y,Z Vertex 4 {m}

OS:Surface,
  {2ee74635-c6ed-4b0e-8cfd-d0db3b807421}, !- Handle
  Surface 27,                             !- Name
  Wall,                                   !- Surface Type
  ,                                       !- Construction Name
  {3c3f6880-43fc-4bed-b301-3634ee06c312}, !- Space Name
  Surface,                                !- Outside Boundary Condition
  {7469146d-c9ac-4832-839c-237440083671}, !- Outside Boundary Condition Object
  NoSun,                                  !- Sun Exposure
  NoWind,                                 !- Wind Exposure
  ,                                       !- View Factor to Ground
  ,                                       !- Number of Vertices
  45.1203994999953, 203.331597999981, 3.2, !- X,Y,Z Vertex 1 {m}
  45.1203994999953, 203.331597999981, 0,  !- X,Y,Z Vertex 2 {m}
  4.57, 293.572396999972, 0,              !- X,Y,Z Vertex 3 {m}
  4.57, 293.572396999972, 3.2;            !- X,Y,Z Vertex 4 {m}

OS:Surface,
  {0dffbd8b-1590-4ff7-8d84-876b93b909d6}, !- Handle
  Surface 28,                             !- Name
  Wall,                                   !- Surface Type
  ,                                       !- Construction Name
  {3c3f6880-43fc-4bed-b301-3634ee06c312}, !- Space Name
  Surface,                                !- Outside Boundary Condition
  {1f8453e8-2595-427d-9122-afe9b57fb57c}, !- Outside Boundary Condition Object
  NoSun,                                  !- Sun Exposure
  NoWind,                                 !- Wind Exposure