
OS:Version,
  {ec2398d9-083a-4ce2-9e4f-793836a67bcc}, !- Handle
  2.6.0;                                  !- Version Identifier

OS:BuildingStory,
  {06107cc7-f396-45fb-9bab-4d878bb6a5a3}, !- Handle
  Story 1,                                !- Name
  0,                                      !- Nominal Z Coordinate {m}
  3.2,                                    !- Nominal Floor to Floor Height {m}
  ,                                       !- Default Construction Set Name
  ,                                       !- Default Schedule Set Name
  ;                                       !- Group Rendering Name

OS:Space,
  {5fb66ea9-90d8-495d-9f56-8e17a43af6e5}, !- Handle
  Story 1 West Left Perimeter Space,      !- Name
  ,                                       !- Space Type Name
  ,                                       !- Default Construction Set Name
  ,                                       !- Default Schedule Set Name
  -0,                                     !- Direction of Relative North {deg}
  0,                                      !- X Origin {m}
  0,                                      !- Y Origin {m}
  0,                                      !- Z Origin {m}
  {06107cc7-f396-45fb-9bab-4d878bb6a5a3}; !- Building Story Name

OS:Surface,
  {90efb980-1c6f-491c-9260-66e052e0fda3}, !- Handle
  Surface 1,                              !- Name
  Floor,                                  !- Surface Type
  ,                                       !- Construction Name
  {5fb66ea9-90d8-495d-9f56-8e17a43af6e5}, !- Space Name
  Ground,                                 !- Outside Boundary Condition
  ,                                       !- Outside Boundary Condition Object
  NoSun,                                  !- Sun Exposure
  NoWind,                                 !- Wind Exposure
  ,                                       !- View Factor to Ground
  ,                                       !- Number of Vertices
  0, 0, 0,                                !- X,Y,Z Vertex 1 {m}
  0, 75.9033390071081, 0,                 !- X,Y,Z Vertex 2 {m}
  4.57, 71.3333390071081, 0,              !- X,Y,Z Vertex 3 {m}
  4.57, 4.57, 0;                          !- X,Y,Z Vertex 4 {m}

OS:Surface,
  {d4ed2eed-2bf7-45d0-9827-1bbf5b405837}, !- Handle
  Surface 2,                              !- Name
  Wall,                                   !- Surface Type
  ,                                       !- Construction Name
  {5fb66ea9-90d8-495d-9f56-8e17a43af6e5}, !- Space Name
  Outdoors,                               !- Outside Boundary Condition
  ,                                       !- Outside Boundary Condition Object
  SunExposed,                             !- Sun Exposure
  WindExposed,                            !- Wind Exposure
  ,                                       !- View Factor to Ground
  ,                                       !- Number of Vertices
  0, 75.9033390071081, 3.2,               !- X,Y,Z Vertex 1 {m}
  0, 75.9033390071081, 0,                 !- X,Y,Z Vertex 2 {m}
  0, 0, 0,                                !- X,Y,Z Vertex 3 {m}
  0, 0, 3.2;                              !- X,Y,Z Vertex 4 {m}

OS:Surface,
  {8d3eb1ba-dba8-464b-bdb1-c00d04463a7e}, !- Handle
  Surface 3,                              !- Name
  Wall,                                   !- Surface Type
  ,                                       !- Construction Name
  {5fb66ea9-90d8-495d-9f56-8e17a43af6e5}, !- Space Name
  Surface,                                !- Outside Boundary Condition
  {80fd98c5-1507-472f-9aaf-1508bebc3601}, !- Outside Boundary Condition Object
  NoSun,                                  !- Sun Exposure
  NoWind,                                 !- Wind Exposure
  ,                                       !- View Factor to Ground
  ,                                       !- Number of Vertices
  4.57, 71.3333390071081, 3.2,            !- X,Y,Z Vertex 1 {m}
  4.57, 71.3333390071081, 0,              !- X,Y,Z Vertex 2 {m}
  0, 75.9033390071081, 0,                 !- X,Y,Z Vertex 3 {m}
  0, 75.9033390071081, 3.2;               !- X,Y,Z Vertex 4 {m}

OS:Surface,
  {961b6483-2ec9-41b5-8edc-1117580f1057}, !- Handle
  Surface 4,                              !- Name
  Wall,                                   !- Surface Type
  ,                                       !- Construction Name
  {5fb66ea9-90d8-495d-9f56-8e17a43af6e5}, !- Space Name
  Surface,                                !- Outside Boundary Condition
  {2e2e8c3f-b242-485b-826e-c20927903119}, !- Outside Boundary Condition Object
  NoSun,                                  !- Sun Exposure
  NoWind,                                 !- Wind Exposure
  ,                                       !- View Factor to Ground
  ,                                       !- Number of Vertices
  4.57, 4.57, 3.2,                        !- X,Y,Z Vertex 1 {m}
  4.57, 4.57, 0,                          !- X,Y,Z Vertex 2 {m}
  4.57, 71.3333390071081, 0,              !- X,Y,Z Vertex 3 {m}
  4.57, 71.3333390071081, 3.2;            !- X,Y,Z Vertex 4 {m}

OS:Surface,
  {456d57f7-f561-44e2-b6ba-d7b08fb46787}, !- Handle
  Surface 5,                              !- Name
  Wall,                                   !- Surface Type
  ,                                       !- Construction Name
  {5fb66ea9-90d8-495d-9f56-8e17a43af6e5}, !- Space Name
  Surface,                                !- Outside Boundary Condition
  {b786525a-0ca7-481d-bf51-008b667d203e}, !- Outside Boundary Condition Object
  NoSun,                                  !- Sun Exposure
  NoWind,                                 !- Wind Exposure
  ,                                       !- View Factor to Ground
  ,                                       !- Number of Vertices
  0, 0, 3.2,                              !- X,Y,Z Vertex 1 {m}
  0, 0, 0,                                !- X,Y,Z Vertex 2 {m}
  4.57, 4.57, 0,                          !- X,Y,Z Vertex 3 {m}
  4.57, 4.57, 3.2;                        !- X,Y,Z Vertex 4 {m}

OS:Surface,
  {ea5e5726-5dea-4482-b944-b413b09710ee}, !- Handle
  Surface 6,                              !- Name
  RoofCeiling,                            !- Surface Type
  ,                                       !- Construction Name
  {5fb66ea9-90d8-495d-9f56-8e17a43af6e5}, !- Space Name
  Surface,                                !- Outside Boundary Condition
  {e478b9d4-90d0-450d-af79-dfe2f7a2ef73}, !- Outside Boundary Condition Object
  NoSun,                                  !- Sun Exposure
  NoWind,                                 !- Wind Exposure
  ,                                       !- View Factor to Ground
  ,                                       !- Number of Vertices
  4.57, 4.57, 3.2,                        !- X,Y,Z Vertex 1 {m}
  4.57, 71.3333390071081, 3.2,            !- X,Y,Z Vertex 2 {m}
  0, 75.9033390071081, 3.2,               !- X,Y,Z Vertex 3 {m}
  0, 0, 3.2;                              !- X,Y,Z Vertex 4 {m}

OS:Space,
  {9518798d-ff1f-47a6-a287-0aca12942da4}, !- Handle
  Story 1 North Left Perimeter Space,     !- Name
  ,                                       !- Space Type Name
  ,                                       !- Default Construction Set Name
  ,                                       !- Default Schedule Set Name
  -0,                                     !- Direction of Relative North {deg}
  0,                                      !- X Origin {m}
  0,                                      !- Y Origin {m}
  0,                                      !- Z Origin {m}
  {06107cc7-f396-45fb-9bab-4d878bb6a5a3}; !- Building Story Name

OS:Surface,
  {fd85b2e3-1234-49e3-814b-5f931d82e53f}, !- Handle
  Surface 7,                              !- Name
  Floor,                                  !- Surface Type
  ,                                       !- Construction Name
  {9518798d-ff1f-47a6-a287-0aca12942da4}, !- Space Name
  Ground,                                 !- Outside Boundary Condition
  ,                                       !- Outside Boundary Condition Object
  NoSun,                                  !- Sun Exposure
  NoWind,                                 !- Wind Exposure
  ,                                       !- View Factor to Ground
  ,                                       !- Number of Vertices
  0, 75.9033390071081, 0,                 !- X,Y,Z Vertex 1 {m}
  37.9516695035541, 75.9033390071081, 0,  !- X,Y,Z Vertex 2 {m}
  33.3816695035541, 71.3333390071081, 0,  !- X,Y,Z Vertex 3 {m}
  4.57, 71.3333390071081, 0;              !- X,Y,Z Vertex 4 {m}

OS:Surface,
  {9c2d0fbc-512f-4ebc-9aee-1cf3caf67901}, !- Handle
  Surface 8,                              !- Name
  Wall,                                   !- Surface Type
  ,                                       !- Construction Name
  {9518798d-ff1f-47a6-a287-0aca12942da4}, !- Space Name
  Outdoors,                               !- Outside Boundary Condition
  ,                                       !- Outside Boundary Condition Object
  SunExposed,                             !- Sun Exposure
  WindExposed,                            !- Wind Exposure
  ,                                       !- View Factor to Ground
  ,                                       !- Number of Vertices
  37.9516695035541, 75.9033390071081, 3.2, !- X,Y,Z Vertex 1 {m}
  37.9516695035541, 75.9033390071081, 0,  !- X,Y,Z Vertex 2 {m}
  0, 75.9033390071081, 0,                 !- X,Y,Z Vertex 3 {m}
  0, 75.9033390071081, 3.2;               !- X,Y,Z Vertex 4 {m}

OS:Surface,
  {b786cc05-10d5-4e21-8061-fda53f334d98}, !- Handle
  Surface 9,                              !- Name
  Wall,                                   !- Surface Type
  ,                                       !- Construction Name
  {9518798d-ff1f-47a6-a287-0aca12942da4}, !- Space Name
  Surface,                                !- Outside Boundary Condition
  {1e7e4f8a-1749-4ef4-91ae-2f09be52bdb0}, !- Outside Boundary Condition Object
  NoSun,                                  !- Sun Exposure
  NoWind,                                 !- Wind Exposure
  ,                                       !- View Factor to Ground
  ,                                       !- Number of Vertices
  33.3816695035541, 71.3333390071081, 3.2, !- X,Y,Z Vertex 1 {m}
  33.3816695035541, 71.3333390071081, 0,  !- X,Y,Z Vertex 2 {m}
  37.9516695035541, 75.9033390071081, 0,  !- X,Y,Z Vertex 3 {m}
  37.9516695035541, 75.9033390071081, 3.2; !- X,Y,Z Vertex 4 {m}

OS:Surface,
  {56708993-a589-4266-a89c-5bce4fc82014}, !- Handle
  Surface 10,                             !- Name
  Wall,                                   !- Surface Type
  ,                                       !- Construction Name
  {9518798d-ff1f-47a6-a287-0aca12942da4}, !- Space Name
  Surface,                                !- Outside Boundary Condition
  {49588659-0c81-4fa8-ac5b-8345434846cb}, !- Outside Boundary Condition Object
  NoSun,                                  !- Sun Exposure
  NoWind,                                 !- Wind Exposure
  ,                                       !- View Factor to Ground
  ,                                       !- Number of Vertices
  4.57, 71.3333390071081, 3.2,            !- X,Y,Z Vertex 1 {m}
  4.57, 71.3333390071081, 0,              !- X,Y,Z Vertex 2 {m}
  33.3816695035541, 71.3333390071081, 0,  !- X,Y,Z Vertex 3 {m}
  33.3816695035541, 71.3333390071081, 3.2; !- X,Y,Z Vertex 4 {m}

OS:Surface,
  {80fd98c5-1507-472f-9aaf-1508bebc3601}, !- Handle
  Surface 11,                             !- Name
  Wall,                                   !- Surface Type
  ,                                       !- Construction Name
  {9518798d-ff1f-47a6-a287-0aca12942da4}, !- Space Name
  Surface,                                !- Outside Boundary Condition
  {8d3eb1ba-dba8-464b-bdb1-c00d04463a7e}, !- Outside Boundary Condition Object
  NoSun,                                  !- Sun Exposure
  NoWind,                                 !- Wind Exposure
  ,                                       !- View Factor to Ground
  ,                                       !- Number of Vertices
  0, 75.9033390071081, 3.2,               !- X,Y,Z Vertex 1 {m}
  0, 75.9033390071081, 0,                 !- X,Y,Z Vertex 2 {m}
  4.57, 71.3333390071081, 0,              !- X,Y,Z Vertex 3 {m}
  4.57, 71.3333390071081, 3.2;            !- X,Y,Z Vertex 4 {m}

OS:Surface,
  {aba825e4-ca41-4b3c-bbaf-1ca2da067fb2}, !- Handle
  Surface 12,                             !- Name
  RoofCeiling,                            !- Surface Type
  ,                                       !- Construction Name
  {9518798d-ff1f-47a6-a287-0aca12942da4}, !- Space Name
  Surface,                                !- Outside Boundary Condition
  {8f00c9aa-70db-429d-83af-1c10271782e5}, !- Outside Boundary Condition Object
  NoSun,                                  !- Sun Exposure
  NoWind,                                 !- Wind Exposure
  ,                                       !- View Factor to Ground
  ,                                       !- Number of Vertices
  4.57, 71.3333390071081, 3.2,            !- X,Y,Z Vertex 1 {m}
  33.3816695035541, 71.3333390071081, 3.2, !- X,Y,Z Vertex 2 {m}
  37.9516695035541, 75.9033390071081, 3.2, !- X,Y,Z Vertex 3 {m}
  0, 75.9033390071081, 3.2;               !- X,Y,Z Vertex 4 {m}

OS:Space,
  {1c34e38b-ca0e-475b-afc1-cb7fbcb2182b}, !- Handle
  Story 1 East Upper Left Perimeter Space, !- Name
  ,                                       !- Space Type Name
  ,                                       !- Default Construction Set Name
  ,                                       !- Default Schedule Set Name
  -0,                                     !- Direction of Relative North {deg}
  0,                                      !- X Origin {m}
  0,                                      !- Y Origin {m}
  0,                                      !- Z Origin {m}
  {06107cc7-f396-45fb-9bab-4d878bb6a5a3}; !- Building Story Name

OS:Surface,
  {509242b8-ec4c-44dd-8d5c-9e8a6cfdf622}, !- Handle
  Surface 13,                             !- Name
  Floor,                                  !- Surface Type
  ,                                       !- Construction Name
  {1c34e38b-ca0e-475b-afc1-cb7fbcb2182b}, !- Space Name
  Ground,                                 !- Outside Boundary Condition
  ,                                       !- Outside Boundary Condition Object
  NoSun,                                  !- Sun Exposure
  NoWind,                                 !- Wind Exposure
  ,                                       !- View Factor to Ground
  ,                                       !- Number of Vertices
  37.9516695035541, 75.9033390071081, 0,  !- X,Y,Z Vertex 1 {m}
  37.9516695035541, 68.3130051063973, 0,  !- X,Y,Z Vertex 2 {m}
  33.3816695035541, 63.7430051063973, 0,  !- X,Y,Z Vertex 3 {m}
  33.3816695035541, 71.3333390071081, 0;  !- X,Y,Z Vertex 4 {m}

OS:Surface,
  {0e2cfe1f-aa24-48ca-a16b-a5ac6bc07b91}, !- Handle
  Surface 14,                             !- Name
  Wall,                                   !- Surface Type
  ,                                       !- Construction Name
  {1c34e38b-ca0e-475b-afc1-cb7fbcb2182b}, !- Space Name
  Outdoors,                               !- Outside Boundary Condition
  ,                                       !- Outside Boundary Condition Object
  SunExposed,                             !- Sun Exposure
  WindExposed,                            !- Wind Exposure
  ,                                       !- View Factor to Ground
  ,                                       !- Number of Vertices
  37.9516695035541, 68.3130051063973, 3.2, !- X,Y,Z Vertex 1 {m}
  37.9516695035541, 68.3130051063973, 0,  !- X,Y,Z Vertex 2 {m}
  37.9516695035541, 75.9033390071081, 0,  !- X,Y,Z Vertex 3 {m}
  37.9516695035541, 75.9033390071081, 3.2; !- X,Y,Z Vertex 4 {m}

OS:Surface,
  {03170f52-85e7-448b-9c3c-9dc8567f0127}, !- Handle
  Surface 15,                             !- Name
  Wall,                                   !- Surface Type
  ,                                       !- Construction Name
  {1c34e38b-ca0e-475b-afc1-cb7fbcb2182b}, !- Space Name
  Surface,                                !- Outside Boundary Condition
  {3a118d12-922a-48ec-909b-92e0f0ab7b40}, !- Outside Boundary Condition Object
  NoSun,                                  !- Sun Exposure
  NoWind,                                 !- Wind Exposure
  ,                                       !- View Factor to Ground
  ,                                       !- Number of Vertices
  33.3816695035541, 63.7430051063973, 3.2, !- X,Y,Z Vertex 1 {m}
  33.3816695035541, 63.7430051063973, 0,  !- X,Y,Z Vertex 2 {m}
  37.9516695035541, 68.3130051063973, 0,  !- X,Y,Z Vertex 3 {m}
  37.9516695035541, 68.3130051063973, 3.2; !- X,Y,Z Vertex 4 {m}

OS:Surface,
  {0d223457-2cc7-42b1-b24c-f8c5bca11a32}, !- Handle
  Surface 16,                             !- Name
  Wall,                                   !- Surface Type
  ,                                       !- Construction Name
  {1c34e38b-ca0e-475b-afc1-cb7fbcb2182b}, !- Space Name
  Surface,                                !- Outside Boundary Condition
  {060cf242-57c5-49dc-8208-a3c1229534e1}, !- Outside Boundary Condition Object
  NoSun,                                  !- Sun Exposure
  NoWind,                                 !- Wind Exposure
  ,                                       !- View Factor to Ground
  ,                                       !- Number of Vertices
  33.3816695035541, 71.3333390071081, 3.2, !- X,Y,Z Vertex 1 {m}
  33.3816695035541, 71.3333390071081, 0,  !- X,Y,Z Vertex 2 {m}
  33.3816695035541, 63.7430051063973, 0,  !- X,Y,Z Vertex 3 {m}
  33.3816695035541, 63.7430051063973, 3.2; !- X,Y,Z Vertex 4 {m}

OS:Surface,
  {1e7e4f8a-1749-4ef4-91ae-2f09be52bdb0}, !- Handle
  Surface 17,                             !- Name
  Wall,                                   !- Surface Type
  ,                                       !- Construction Name
  {1c34e38b-ca0e-475b-afc1-cb7fbcb2182b}, !- Space Name
  Surface,                                !- Outside Boundary Condition
  {b786cc05-10d5-4e21-8061-fda53f334d98}, !- Outside Boundary Condition Object
  NoSun,                                  !- Sun Exposure
  NoWind,                                 !- Wind Exposure
  ,                                       !- View Factor to Ground
  ,                                       !- Number of Vertices
  37.9516695035541, 75.9033390071081, 3.2, !- X,Y,Z Vertex 1 {m}
  37.9516695035541, 75.9033390071081, 0,  !- X,Y,Z Vertex 2 {m}
  33.3816695035541, 71.3333390071081, 0,  !- X,Y,Z Vertex 3 {m}
  33.3816695035541, 71.3333390071081, 3.2; !- X,Y,Z Vertex 4 {m}

OS:Surface,
  {f7dfedd2-c175-4f7a-9f92-7f4619404429}, !- Handle
  Surface 18,                             !- Name
  RoofCeiling,                            !- Surface Type
  ,                                       !- Construction Name
  {1c34e38b-ca0e-475b-afc1-cb7fbcb2182b}, !- Space Name
  Surface,                                !- Outside Boundary Condition
  {1cf31354-943e-4803-a915-f827beeac687}, !- Outside Boundary Condition Object
  NoSun,                                  !- Sun Exposure
  NoWind,                                 !- Wind Exposure
  ,                                       !- View Factor to Ground
  ,                                       !- Number of Vertices
  33.3816695035541, 71.3333390071081, 3.2, !- X,Y,Z Vertex 1 {m}
  33.3816695035541, 63.7430051063973, 3.2, !- X,Y,Z Vertex 2 {m}
  37.9516695035541, 68.3130051063973, 3.2, !- X,Y,Z Vertex 3 {m}
  37.9516695035541, 75.9033390071081, 3.2; !- X,Y,Z Vertex 4 {m}

OS:Space,
  {b71ab380-344d-419a-9a1e-39168d6b363b}, !- Handle
  Story 1 North Center Perimeter Space,   !- Name
  ,                                       !- Space Type Name
  ,                                       !- Default Construction Set Name
  ,                                       !- Default Schedule Set Name
  -0,                                     !- Direction of Relative North {deg}
  0,                                      !- X Origin {m}
  0,                                      !- Y Origin {m}
  0,                                      !- Z Origin {m}
  {06107cc7-f396-45fb-9bab-4d878bb6a5a3}; !- Building Story Name

OS:Surface,
  {30c32537-1cf3-4a84-8029-440d5c5986b1}, !- Handle
  Surface 19,                             !- Name
  Floor,                                  !- Surface Type
  ,                                       !- Construction Name
  {b71ab380-344d-419a-9a1e-39168d6b363b}, !- Space Name
  Ground,                                 !- Outside Boundary Condition
  ,                                       !- Outside Boundary Condition Object
  NoSun,                                  !- Sun Exposure
  NoWind,                                 !- Wind Exposure
  ,                                       !- View Factor to Ground
  ,                                       !- Number of Vertices
  37.9516695035541, 68.3130051063973, 0,  !- X,Y,Z Vertex 1 {m}
  75.9033390071081, 68.3130051063973, 0,  !- X,Y,Z Vertex 2 {m}
  80.4733390071081, 63.7430051063973, 0,  !- X,Y,Z Vertex 3 {m}
  33.3816695035541, 63.7430051063973, 0;  !- X,Y,Z Vertex 4 {m}

OS:Surface,
  {4c8f2542-16ed-4d11-81d1-69a2dbec8e48}, !- Handle
  Surface 20,                             !- Name
  Wall,                                   !- Surface Type
  ,                                       !- Construction Name
  {b71ab380-344d-419a-9a1e-39168d6b363b}, !- Space Name
  Outdoors,                               !- Outside Boundary Condition
  ,                                       !- Outside Boundary Condition Object
  SunExposed,                             !- Sun Exposure
  WindExposed,                            !- Wind Exposure
  ,                                       !- View Factor to Ground
  ,                                       !- Number of Vertices
  75.9033390071081, 68.3130051063973, 3.2, !- X,Y,Z Vertex 1 {m}
  75.9033390071081, 68.3130051063973, 0,  !- X,Y,Z Vertex 2 {m}
  37.9516695035541, 68.3130051063973, 0,  !- X,Y,Z Vertex 3 {m}
  37.9516695035541, 68.3130051063973, 3.2; !- X,Y,Z Vertex 4 {m}

OS:Surface,
  {af4bdac1-f2f5-4337-88d9-ddc121ea7e0e}, !- Handle
  Surface 21,                             !- Name
  Wall,                                   !- Surface Type
  ,                                       !- Construction Name
  {b71ab380-344d-419a-9a1e-39168d6b363b}, !- Space Name
  Surface,                                !- Outside Boundary Condition
  {4b08822c-dff3-4252-bff8-e9ba81d828bf}, !- Outside Boundary Condition Object
  NoSun,                                  !- Sun Exposure
  NoWind,                                 !- Wind Exposure
  ,                                       !- View Factor to Ground
  ,                                       !- Number of Vertices
  80.4733390071081, 63.7430051063973, 3.2, !- X,Y,Z Vertex 1 {m}
  80.4733390071081, 63.7430051063973, 0,  !- X,Y,Z Vertex 2 {m}
  75.9033390071081, 68.3130051063973, 0,  !- X,Y,Z Vertex 3 {m}
  75.9033390071081, 68.3130051063973, 3.2; !- X,Y,Z Vertex 4 {m}

OS:Surface,
  {99dfc525-7cfb-4c13-9516-8945f75ee8f7}, !- Handle
  Surface 22,                             !- Name
  Wall,                                   !- Surface Type
  ,                                       !- Construction Name
  {b71ab380-344d-419a-9a1e-39168d6b363b}, !- Space Name
  Surface,                                !- Outside Boundary Condition
  {2afd200f-cb47-4bdc-b2bf-36d904046813}, !- Outside Boundary Condition Object
  NoSun,                                  !- Sun Exposure
  NoWind,                                 !- Wind Exposure
  ,                                       !- View Factor to Ground
  ,                                       !- Number of Vertices
  33.3816695035541, 63.7430051063973, 3.2, !- X,Y,Z Vertex 1 {m}
  33.3816695035541, 63.7430051063973, 0,  !- X,Y,Z Vertex 2 {m}
  80.4733390071081, 63.7430051063973, 0,  !- X,Y,Z Vertex 3 {m}
  80.4733390071081, 63.7430051063973, 3.2; !- X,Y,Z Vertex 4 {m}

OS:Surface,
  {3a118d12-922a-48ec-909b-92e0f0ab7b40}, !- Handle
  Surface 23,                             !- Name
  Wall,                                   !- Surface Type
  ,                                       !- Construction Name
  {b71ab380-344d-419a-9a1e-39168d6b363b}, !- Space Name
  Surface,                                !- Outside Boundary Condition
  {03170f52-85e7-448b-9c3c-9dc8567f0127}, !- Outside Boundary Condition Object
  NoSun,                                  !- Sun Exposure
  NoWind,                                 !- Wind Exposure
  ,                                       !- View Factor to Ground
  ,                                       !- Number of Vertices
  37.9516695035541, 68.3130051063973, 3.2, !- X,Y,Z Vertex 1 {m}
  37.9516695035541, 68.3130051063973, 0,  !- X,Y,Z Vertex 2 {m}
  33.3816695035541, 63.7430051063973, 0,  !- X,Y,Z Vertex 3 {m}
  33.3816695035541, 63.7430051063973, 3.2; !- X,Y,Z Vertex 4 {m}

OS:Surface,
  {876014b9-a838-4772-80bf-2b076cc4a5bc}, !- Handle
  Surface 24,                             !- Name
  RoofCeiling,                            !- Surface Type
  ,                                       !- Construction Name
  {b71ab380-344d-419a-9a1e-39168d6b363b}, !- Space Name
  Surface,                                !- Outside Boundary Condition
  {ca0b1061-afd4-4b1d-9a12-8bd1bc6fff70}, !- Outside Boundary Condition Object
  NoSun,                                  !- Sun Exposure
  NoWind,                                 !- Wind Exposure
  ,                                       !- View Factor to Ground
  ,                                       !- Number of Vertices
  33.3816695035541, 63.7430051063973, 3.2, !- X,Y,Z Vertex 1 {m}
  80.4733390071081, 63.7430051063973, 3.2, !- X,Y,Z Vertex 2 {m}
  75.9033390071081, 68.3130051063973, 3.2, !- X,Y,Z Vertex 3 {m}
  37.9516695035541, 68.3130051063973, 3.2; !- X,Y,Z Vertex 4 {m}

OS:Space,
  {40e03f5b-6ed8-461f-aabc-8397c2ff877b}, !- Handle
  Story 1 West Upper Right Perimeter Space, !- Name
  ,                                       !- Space Type Name
  ,                                       !- Default Construction Set Name
  ,                                       !- Default Schedule Set Name
  -0,                                     !- Direction of Relative North {deg}
  0,                                      !- X Origin {m}
  0,                                      !- Y Origin {m}
  0,                                      !- Z Origin {m}
  {06107cc7-f396-45fb-9bab-4d878bb6a5a3}; !- Building Story Name

OS:Surface,
  {a17b52f3-bbf3-4596-98e5-4b731dff4dfc}, !- Handle
  Surface 25,                             !- Name
  Floor,                                  !- Surface Type
  ,                                       !- Construction Name
  {40e03f5b-6ed8-461f-aabc-8397c2ff877b}, !- Space Name
  Ground,                                 !- Outside Boundary Condition
  ,                                       !- Outside Boundary Condition Object
  NoSun,                                  !- Sun Exposure
  NoWind,                                 !- Wind Exposure
  ,                                       !- View Factor to Ground
  ,                                       !- Number of Vertices
  75.9033390071081, 68.3130051063973, 0,  !- X,Y,Z Vertex 1 {m}
  75.9033390071081, 75.9033390071081, 0,  !- X,Y,Z Vertex 2 {m}
  80.4733390071081, 71.3333390071081, 0,  !- X,Y,Z Vertex 3 {m}
  80.4733390071081, 63.7430051063973, 0;  !- X,Y,Z Vertex 4 {m}

OS:Surface,
  {d1e6a10f-82db-4132-90ef-477ebb26f78c}, !- Handle
  Surface 26,                             !- Name
  Wall,                                   !- Surface Type
  ,                                       !- Construction Name
  {40e03f5b-6ed8-461f-aabc-8397c2ff877b}, !- Space Name
  Outdoors,                               !- Outside Boundary Condition
  ,                                       !- Outside Boundary Condition Object
  SunExposed,                             !- Sun Exposure
  WindExposed,                            !- Wind Exposure
  ,                                       !- View Factor to Ground
  ,                                       !- Number of Vertices
  75.9033390071081, 75.9033390071081, 3.2, !- X,Y,Z Vertex 1 {m}
  75.9033390071081, 75.9033390071081, 0,  !- X,Y,Z Vertex 2 {m}
  75.9033390071081, 68.3130051063973, 0,  !- X,Y,Z Vertex 3 {m}
  75.9033390071081, 68.3130051063973, 3.2; !- X,Y,Z Vertex 4 {m}

OS:Surface,
  {52896c23-8aa9-45f8-b116-b97f5ece51f6}, !- Handle
  Surface 27,                             !- Name
  Wall,                                   !- Surface Type
  ,                                       !- Construction Name
  {40e03f5b-6ed8-461f-aabc-8397c2ff877b}, !- Space Name
  Surface,                                !- Outside Boundary Condition
  {9a6d7e8c-188c-4ecf-a7bc-9e5a3cd9b6c3}, !- Outside Boundary Condition Object
  NoSun,                                  !- Sun Exposure
  NoWind,                                 !- Wind Exposure
  ,                                       !- View Factor to Ground
  ,                                       !- Number of Vertices
  80.4733390071081, 71.3333390071081, 3.2, !- X,Y,Z Vertex 1 {m}
  80.4733390071081, 71.3333390071081, 0,  !- X,Y,Z Vertex 2 {m}
  75.9033390071081, 75.9033390071081, 0,  !- X,Y,Z Vertex 3 {m}
  75.9033390071081, 75.9033390071081, 3.2; !- X,Y,Z Vertex 4 {m}

OS:Surface,
  {d5d36032-b6f8-43b4-a27d-93cb585bc7e8}, !- Handle
  Surface 28,                             !- Name
  Wall,                                   !- Surface Type
  ,                                       !- Construction Name
  {40e03f5b-6ed8-461f-aabc-8397c2ff877b}, !- Space Name
  Surface,                                !- Outside Boundary Condition
  {d7748c9b-967b-4db9-bc85-8f77ab2e94c8}, !- Outside Boundary Condition Object
  NoSun,                                  !- Sun Exposure
  NoWind,                                 !- Wind Exposure