
OS:Version,
  {5a69f9ec-efd1-49c6-a73c-399fc6a4e82a}, !- Handle
  2.6.0;                                  !- Version Identifier

OS:BuildingStory,
  {0c1021b0-9858-4acf-81a1-4c22c98300ed}, !- Handle
  Story 1,                                !- Name
  0,                                      !- Nominal Z Coordinate {m}
  3.2,                                    !- Nominal Floor to Floor Height {m}
  ,                                       !- Default Construction Set Name
  ,                                       !- Default Schedule Set Name
  ;                                       !- Group Rendering Name

OS:Space,
  {1f8ca171-c1b4-430e-84c8-340fc90bf70d}, !- Handle
  Story 1 West Perimeter Space,           !- Name
  ,                                       !- Space Type Name
  ,                                       !- Default Construction Set Name
  ,                                       !- Default Schedule Set Name
  -0,                                     !- Direction of Relative North {deg}
  0,                                      !- X Origin {m}
  0,                                      !- Y Origin {m}
  0,                                      !- Z Origin {m}
  {0c1021b0-9858-4acf-81a1-4c22c98300ed}; !- Building Story Name

OS:Surface,
  {1ea4bc67-0b37-4d69-878e-415f457f1555}, !- Handle
  Surface 1,                              !- Name
  Floor,                                  !- Surface Type
  ,                                       !- Construction Name
  {1f8ca171-c1b4-430e-84c8-340fc90bf70d}, !- Space Name
  Ground,                                 !- Outside Boundary Condition
  ,                                       !- Outside Boundary Condition Object
  NoSun,                                  !- Sun Exposure
  NoWind,                                 !- Wind Exposure
  ,                                       !- View Factor to Ground
  ,                                       !- Number of Vertices
  0, 0, 0,                                !- X,Y,Z Vertex 1 {m}
  0, 192.450089729875, 0,                 !- X,Y,Z Vertex 2 {m}
  4.57, 187.880089729875, 0,              !- X,Y,Z Vertex 3 {m}
  4.57, 4.57, 0;                          !- X,Y,Z Vertex 4 {m}

OS:Surface,
  {f0e29b64-e7f2-4821-a811-4cba286e2021}, !- Handle
  Surface 2,                              !- Name
  Wall,                                   !- Surface Type
  ,                                       !- Construction Name
  {1f8ca171-c1b4-430e-84c8-340fc90bf70d}, !- Space Name
  Outdoors,                               !- Outside Boundary Condition
  ,                                       !- Outside Boundary Condition Object
  SunExposed,                             !- Sun Exposure
  WindExposed,                            !- Wind Exposure
  ,                                       !- View Factor to Ground
  ,                                       !- Number of Vertices
  0, 192.450089729875, 3.2,               !- X,Y,Z Vertex 1 {m}
  0, 192.450089729875, 0,                 !- X,Y,Z Vertex 2 {m}
  0, 0, 0,                                !- X,Y,Z Vertex 3 {m}
  0, 0, 3.2;                              !- X,Y,Z Vertex 4 {m}

OS:Surface,
  {da75f966-0bfe-413d-bd4e-28148084b951}, !- Handle
  Surface 3,                              !- Name
  Wall,                                   !- Surface Type
  ,                                       !- Construction Name
  {1f8ca171-c1b4-430e-84c8-340fc90bf70d}, !- Space Name
  Surface,                                !- Outside Boundary Condition
  {a46c0613-740e-4039-9c0d-de3176ba7176}, !- Outside Boundary Condition Object
  NoSun,                                  !- Sun Exposure
  NoWind,                                 !- Wind Exposure
  ,                                       !- View Factor to Ground
  ,                                       !- Number of Vertices
  4.57, 187.880089729875, 3.2,            !- X,Y,Z Vertex 1 {m}
  4.57, 187.880089729875, 0,              !- X,Y,Z Vertex 2 {m}
  0, 192.450089729875, 0,                 !- X,Y,Z Vertex 3 {m}
  0, 192.450089729875, 3.2;               !- X,Y,Z Vertex 4 {m}

OS:Surface,
  {fa325931-5e1d-45e5-a752-b1b7588bc318}, !- Handle
  Surface 4,                              !- Name
  Wall,                                   !- Surface Type
  ,                                       !- Construction Name
  {1f8ca171-c1b4-430e-84c8-340fc90bf70d}, !- Space Name
  Surface,                                !- Outside Boundary Condition
  {6a93ce2b-899f-4da9-83d3-f89fac8d91bf}, !- Outside Boundary Condition Object
  NoSun,                                  !- Sun Exposure
  NoWind,                                 !- Wind Exposure
  ,                                       !- View Factor to Ground
  ,                                       !- Number of Vertices
  4.57, 4.57, 3.2,                        !- X,Y,Z Vertex 1 {m}
  4.57, 4.57, 0,                          !- X,Y,Z Vertex 2 {m}
  4.57, 187.880089729875, 0,              !- X,Y,Z Vertex 3 {m}
  4.57, 187.880089729875, 3.2;            !- X,Y,Z Vertex 4 {m}

OS:Surface,
  {f4f1f56b-eafb-4049-829d-88f6e04391b9}, !- Handle
  Surface 5,                              !- Name
  Wall,                                   !- Surface Type
  ,                                       !- Construction Name
  {1f8ca171-c1b4-430e-84c8-340fc90bf70d}, !- Space Name
  Surface,                                !- Outside Boundary Condition
  {2f8a1a68-ea33-4454-918f-a685ea71de7b}, !- Outside Boundary Condition Object
  NoSun,                                  !- Sun Exposure
  NoWind,                                 !- Wind Exposure
  ,                                       !- View Factor to Ground
  ,                                       !- Number of Vertices
  0, 0, 3.2,                              !- X,Y,Z Vertex 1 {m}
  0, 0, 0,                                !- X,Y,Z Vertex 2 {m}
  4.57, 4.57, 0,                          !- X,Y,Z Vertex 3 {m}
  4.57, 4.57, 3.2;                        !- X,Y,Z Vertex 4 {m}

OS:Surface,
  {453b87bc-b3c4-4b2c-861d-2f937a326014}, !- Handle
  Surface 6,                              !- Name
  RoofCeiling,                            !- Surface Type
  ,                                       !- Construction Name
  {1f8ca171-c1b4-430e-84c8-340fc90bf70d}, !- Space Name
  Surface,                                !- Outside Boundary Condition
  {a295e920-19f7-463f-87ef-6ed38a4af3c0}, !- Outside Boundary Condition Object
  NoSun,                                  !- Sun Exposure
  NoWind,                                 !- Wind Exposure
  ,                                       !- View Factor to Ground
  ,                                       !- Number of Vertices
  4.57, 4.57, 3.2,                        !- X,Y,Z Vertex 1 {m}
  4.57, 187.880089729875, 3.2,            !- X,Y,Z Vertex 2 {m}
  0, 192.450089729875, 3.2,               !- X,Y,Z Vertex 3 {m}
  0, 0, 3.2;                              !- X,Y,Z Vertex 4 {m}

OS:Space,
  {dfe7e21c-5613-48de-a155-7f7d9a25199f}, !- Handle
  Story 1 North Upper Perimeter Space,    !- Name
  ,                                       !- Space Type Name
  ,                                       !- Default Construction Set Name
  ,                                       !- Default Schedule Set Name
  -0,                                     !- Direction of Relative North {deg}
  0,                                      !- X Origin {m}
  0,                                      !- Y Origin {m}
  0,                                      !- Z Origin {m}
  {0c1021b0-9858-4acf-81a1-4c22c98300ed}; !- Building Story Name

OS:Surface,
  {793e4030-a6e2-46d0-a94c-f58ccab85232}, !- Handle
  Surface 7,                              !- Name
  Floor,                                  !- Surface Type
  ,                                       !- Construction Name
  {dfe7e21c-5613-48de-a155-7f7d9a25199f}, !- Space Name
  Ground,                                 !- Outside Boundary Condition
  ,                                       !- Outside Boundary Condition Object
  NoSun,                                  !- Sun Exposure
  NoWind,                                 !- Wind Exposure
  ,                                       !- View Factor to Ground
  ,                                       !- Number of Vertices
  0, 192.450089729875, 0,                 !- X,Y,Z Vertex 1 {m}
  32.0750149549792, 192.450089729875, 0,  !- X,Y,Z Vertex 2 {m}
  27.5050149549792, 187.880089729875, 0,  !- X,Y,Z Vertex 3 {m}
  4.57, 187.880089729875, 0;              !- X,Y,Z Vertex 4 {m}

OS:Surface,
  {b5d20651-b5b6-4b6e-a6f6-deb0261edaa0}, !- Handle
  Surface 8,                              !- Name
  Wall,                                   !- Surface Type
  ,                                       !- Construction Name
  {dfe7e21c-5613-48de-a155-7f7d9a25199f}, !- Space Name
  Outdoors,                               !- Outside Boundary Condition
  ,                                       !- Outside Boundary Condition Object
  SunExposed,                             !- Sun Exposure
  WindExposed,                            !- Wind Exposure
  ,                                       !- View Factor to Ground
  ,                                       !- Number of Vertices
  32.0750149549792, 192.450089729875, 3.2, !- X,Y,Z Vertex 1 {m}
  32.0750149549792, 192.450089729875, 0,  !- X,Y,Z Vertex 2 {m}
  0, 192.450089729875, 0,                 !- X,Y,Z Vertex 3 {m}
  0, 192.450089729875, 3.2;               !- X,Y,Z Vertex 4 {m}

OS:Surface,
  {ddbab100-ffb0-4939-8d47-58800a8b4c0e}, !- Handle
  Surface 9,                              !- Name
  Wall,                                   !- Surface Type
  ,                                       !- Construction Name
  {dfe7e21c-5613-48de-a155-7f7d9a25199f}, !- Space Name
  Surface,                                !- Outside Boundary Condition
  {2c78f12d-cbee-4aee-8bfc-6981a7cd267d}, !- Outside Boundary Condition Object
  NoSun,                                  !- Sun Exposure
  NoWind,                                 !- Wind Exposure
  ,                                       !- View Factor to Ground
  ,                                       !- Number of Vertices
  27.5050149549792, 187.880089729875, 3.2, !- X,Y,Z Vertex 1 {m}
  27.5050149549792, 187.880089729875, 0,  !- X,Y,Z Vertex 2 {m}
  32.0750149549792, 192.450089729875, 0,  !- X,Y,Z Vertex 3 {m}
  32.0750149549792, 192.450089729875, 3.2; !- X,Y,Z Vertex 4 {m}

OS:Surface,
  {4e5784fc-c32f-44c9-9023-f31729b5b8e2}, !- Handle
  Surface 10,                             !- Name
  Wall,                                   !- Surface Type
  ,                                       !- Construction Name
  {dfe7e21c-5613-48de-a155-7f7d9a25199f}, !- Space Name
  Surface,                                !- Outside Boundary Condition
  {fc1997b0-4e23-4fb6-8424-2fcb2518eb03}, !- Outside Boundary Condition Object
  NoSun,                                  !- Sun Exposure
  NoWind,                                 !- Wind Exposure
  ,                                       !- View Factor to Ground
  ,                                       !- Number of Vertices
  4.57, 187.880089729875, 3.2,            !- X,Y,Z Vertex 1 {m}
  4.57, 187.880089729875, 0,              !- X,Y,Z Vertex 2 {m}
  27.5050149549792, 187.880089729875, 0,  !- X,Y,Z Vertex 3 {m}
  27.5050149549792, 187.880089729875, 3.2; !- X,Y,Z Vertex 4 {m}

OS:Surface,
  {a46c0613-740e-4039-9c0d-de3176ba7176}, !- Handle
  Surface 11,                             !- Name
  Wall,                                   !- Surface Type
  ,                                       !- Construction Name
  {dfe7e21c-5613-48de-a155-7f7d9a25199f}, !- Space Name
  Surface,                                !- Outside Boundary Condition
  {da75f966-0bfe-413d-bd4e-28148084b951}, !- Outside Boundary Condition Object
  NoSun,                                  !- Sun Exposure
  NoWind,                                 !- Wind Exposure
  ,                                       !- View Factor to Ground
  ,                                       !- Number of Vertices
  0, 192.450089729875, 3.2,               !- X,Y,Z Vertex 1 {m}
  0, 192.450089729875, 0,                 !- X,Y,Z Vertex 2 {m}
  4.57, 187.880089729875, 0,              !- X,Y,Z Vertex 3 {m}
  4.57, 187.880089729875, 3.2;            !- X,Y,Z Vertex 4 {m}

OS:Surface,
  {e0b6a4dd-ca23-4e77-8520-4fca2b820c48}, !- Handle
  Surface 12,                             !- Name
  RoofCeiling,                            !- Surface Type
  ,                                       !- Construction Name
  {dfe7e21c-5613-48de-a155-7f7d9a25199f}, !- Space Name
  Surface,                                !- Outside Boundary Condition
  {8608f345-15b3-4aa9-b78d-2eba8735fca3}, !- Outside Boundary Condition Object
  NoSun,                                  !- Sun Exposure
  NoWind,                                 !- Wind Exposure
  ,                                       !- View Factor to Ground
  ,                                       !- Number of Vertices
  4.57, 187.880089729875, 3.2,            !- X,Y,Z Vertex 1 {m}
  27.5050149549792, 187.880089729875, 3.2, !- X,Y,Z Vertex 2 {m}
  32.0750149549792, 192.450089729875, 3.2, !- X,Y,Z Vertex 3 {m}
  0, 192.450089729875, 3.2;               !- X,Y,Z Vertex 4 {m}

OS:Space,
  {a2bded4d-54e8-40ed-b834-12c91a497be6}, !- Handle
  Story 1 East Upper Perimeter Space,     !- Name
  ,                                       !- Space Type Name
  ,                                       !- Default Construction Set Name
  ,                                       !- Default Schedule Set Name
  -0,                                     !- Direction of Relative North {deg}
  0,                                      !- X Origin {m}
  0,                                      !- Y Origin {m}
  0,                                      !- Z Origin {m}
  {0c1021b0-9858-4acf-81a1-4c22c98300ed}; !- Building Story Name

OS:Surface,
  {fcdb740a-5c30-4a66-82a2-380711c1ba82}, !- Handle
  Surface 13,                             !- Name
  Floor,                                  !- Surface Type
  ,                                       !- Construction Name
  {a2bded4d-54e8-40ed-b834-12c91a497be6}, !- Space Name
  Ground,                                 !- Outside Boundary Condition
  ,                                       !- Outside Boundary Condition Object
  NoSun,                                  !- Sun Exposure
  NoWind,                                 !- Wind Exposure
  ,                                       !- View Factor to Ground
  ,                                       !- Number of Vertices
  32.0750149549792, 192.450089729875, 0,  !- X,Y,Z Vertex 1 {m}
  32.0750149549792, 64.1500299099584, 0,  !- X,Y,Z Vertex 2 {m}
  27.5050149549792, 59.5800299099584, 0,  !- X,Y,Z Vertex 3 {m}
  27.5050149549792, 187.880089729875, 0;  !- X,Y,Z Vertex 4 {m}

OS:Surface,
  {833d8269-e88c-47da-b44c-7a29b598db05}, !- Handle
  Surface 14,                             !- Name
  Wall,                                   !- Surface Type
  ,                                       !- Construction Name
  {a2bded4d-54e8-40ed-b834-12c91a497be6}, !- Space Name
  Outdoors,                               !- Outside Boundary Condition
  ,                                       !- Outside Boundary Condition Object
  SunExposed,                             !- Sun Exposure
  WindExposed,                            !- Wind Exposure
  ,                                       !- View Factor to Ground
  ,                                       !- Number of Vertices
  32.0750149549792, 64.1500299099584, 3.2, !- X,Y,Z Vertex 1 {m}
  32.0750149549792, 64.1500299099584, 0,  !- X,Y,Z Vertex 2 {m}
  32.0750149549792, 192.450089729875, 0,  !- X,Y,Z Vertex 3 {m}
  32.0750149549792, 192.450089729875, 3.2; !- X,Y,Z Vertex 4 {m}

OS:Surface,
  {2cf0c6f0-7aca-4d4c-8ecc-2494ee377e6a}, !- Handle
  Surface 15,                             !- Name
  Wall,                                   !- Surface Type
  ,                                       !- Construction Name
  {a2bded4d-54e8-40ed-b834-12c91a497be6}, !- Space Name
  Surface,                                !- Outside Boundary Condition
  {8a657508-c63b-4a6f-ae2f-7ec1b5e74913}, !- Outside Boundary Condition Object
  NoSun,                                  !- Sun Exposure
  NoWind,                                 !- Wind Exposure
  ,                                       !- View Factor to Ground
  ,                                       !- Number of Vertices
  27.5050149549792, 59.5800299099584, 3.2, !- X,Y,Z Vertex 1 {m}
  27.5050149549792, 59.5800299099584, 0,  !- X,Y,Z Vertex 2 {m}
  32.0750149549792, 64.1500299099584, 0,  !- X,Y,Z Vertex 3 {m}
  32.0750149549792, 64.1500299099584, 3.2; !- X,Y,Z Vertex 4 {m}

OS:Surface,
  {149a8849-37db-4935-9249-91395a2cb394}, !- Handle
  Surface 16,                             !- Name
  Wall,                                   !- Surface Type
  ,                                       !- Construction Name
  {a2bded4d-54e8-40ed-b834-12c91a497be6}, !- Space Name
  Surface,                                !- Outside Boundary Condition
  {a2b5f93a-1cf7-46b2-999e-0537d5644e6b}, !- Outside Boundary Condition Object
  NoSun,                                  !- Sun Exposure
  NoWind,                                 !- Wind Exposure
  ,                                       !- View Factor to Ground
  ,                                       !- Number of Vertices
  27.5050149549792, 187.880089729875, 3.2, !- X,Y,Z Vertex 1 {m}
  27.5050149549792, 187.880089729875, 0,  !- X,Y,Z Vertex 2 {m}
  27.5050149549792, 59.5800299099584, 0,  !- X,Y,Z Vertex 3 {m}
  27.5050149549792, 59.5800299099584, 3.2; !- X,Y,Z Vertex 4 {m}

OS:Surface,
  {2c78f12d-cbee-4aee-8bfc-6981a7cd267d}, !- Handle
  Surface 17,                             !- Name
  Wall,                                   !- Surface Type
  ,                                       !- Construction Name
  {a2bded4d-54e8-40ed-b834-12c91a497be6}, !- Space Name
  Surface,                                !- Outside Boundary Condition
  {ddbab100-ffb0-4939-8d47-58800a8b4c0e}, !- Outside Boundary Condition Object
  NoSun,                                  !- Sun Exposure
  NoWind,                                 !- Wind Exposure
  ,                                       !- View Factor to Ground
  ,                                       !- Number of Vertices
  32.0750149549792, 192.450089729875, 3.2, !- X,Y,Z Vertex 1 {m}
  32.0750149549792, 192.450089729875, 0,  !- X,Y,Z Vertex 2 {m}
  27.5050149549792, 187.880089729875, 0,  !- X,Y,Z Vertex 3 {m}
  27.5050149549792, 187.880089729875, 3.2; !- X,Y,Z Vertex 4 {m}

OS:Surface,
  {d5cc9bbf-8a65-4f02-997c-2669fbf393d4}, !- Handle
  Surface 18,                             !- Name
  RoofCeiling,                            !- Surface Type
  ,                                       !- Construction Name
  {a2bded4d-54e8-40ed-b834-12c91a497be6}, !- Space Name
  Surface,                                !- Outside Boundary Condition
  {e5a9eba0-1444-4319-aaa8-d7c21ebbe5b3}, !- Outside Boundary Condition Object
  NoSun,                                  !- Sun Exposure
  NoWind,                                 !- Wind Exposure
  ,                                       !- View Factor to Ground
  ,                                       !- Number of Vertices
  27.5050149549792, 187.880089729875, 3.2, !- X,Y,Z Vertex 1 {m}
  27.5050149549792, 59.5800299099584, 3.2, !- X,Y,Z Vertex 2 {m}
  32.0750149549792, 64.1500299099584, 3.2, !- X,Y,Z Vertex 3 {m}
  32.0750149549792, 192.450089729875, 3.2; !- X,Y,Z Vertex 4 {m}

OS:Space,
  {f3ce1c0d-1d53-4de8-adfb-5a9fe9ee2a0a}, !- Handle
  Story 1 North Lower Perimeter Space,    !- Name
  ,                                       !- Space Type Name
  ,                                       !- Default Construction Set Name
  ,                                       !- Default Schedule Set Name
  -0,                                     !- Direction of Relative North {deg}
  0,                                      !- X Origin {m}
  0,                                      !- Y Origin {m}
  0,                                      !- Z Origin {m}
  {0c1021b0-9858-4acf-81a1-4c22c98300ed}; !- Building Story Name

OS:Surface,
  {f33ad0eb-0d7d-45d7-a7e1-0be9198dc4b6}, !- Handle
  Surface 19,                             !- Name
  Floor,                                  !- Surface Type
  ,                                       !- Construction Name
  {f3ce1c0d-1d53-4de8-adfb-5a9fe9ee2a0a}, !- Space Name
  Ground,                                 !- Outside Boundary Condition
  ,                                       !- Outside Boundary Condition Object
  NoSun,                                  !- Sun Exposure
  NoWind,                                 !- Wind Exposure
  ,                                       !- View Factor to Ground
  ,                                       !- Number of Vertices
  32.0750149549792, 64.1500299099584, 0,  !- X,Y,Z Vertex 1 {m}
  96.2250448649376, 64.1500299099584, 0,  !- X,Y,Z Vertex 2 {m}
  91.6550448649376, 59.5800299099584, 0,  !- X,Y,Z Vertex 3 {m}
  27.5050149549792, 59.5800299099584, 0;  !- X,Y,Z Vertex 4 {m}

OS:Surface,
  {b3fc7430-f081-4e06-8702-01d644822fc0}, !- Handle
  Surface 20,                             !- Name
  Wall,                                   !- Surface Type
  ,                                       !- Construction Name
  {f3ce1c0d-1d53-4de8-adfb-5a9fe9ee2a0a}, !- Space Name
  Outdoors,                               !- Outside Boundary Condition
  ,                                       !- Outside Boundary Condition Object
  SunExposed,                             !- Sun Exposure
  WindExposed,                            !- Wind Exposure
  ,                                       !- View Factor to Ground
  ,                                       !- Number of Vertices
  96.2250448649376, 64.1500299099584, 3.2, !- X,Y,Z Vertex 1 {m}
  96.2250448649376, 64.1500299099584, 0,  !- X,Y,Z Vertex 2 {m}
  32.0750149549792, 64.1500299099584, 0,  !- X,Y,Z Vertex 3 {m}
  32.0750149549792, 64.1500299099584, 3.2; !- X,Y,Z Vertex 4 {m}

OS:Surface,
  {86d3996a-623c-4fae-9b46-5fb622da5fb8}, !- Handle
  Surface 21,                             !- Name
  Wall,                                   !- Surface Type
  ,                                       !- Construction Name
  {f3ce1c0d-1d53-4de8-adfb-5a9fe9ee2a0a}, !- Space Name
  Surface,                                !- Outside Boundary Condition
  {14316ce1-f72a-4a64-a8a2-e587c4973324}, !- Outside Boundary Condition Object
  NoSun,                                  !- Sun Exposure
  NoWind,                                 !- Wind Exposure
  ,                                       !- View Factor to Ground
  ,                                       !- Number of Vertices
  91.6550448649376, 59.5800299099584, 3.2, !- X,Y,Z Vertex 1 {m}
  91.6550448649376, 59.5800299099584, 0,  !- X,Y,Z Vertex 2 {m}
  96.2250448649376, 64.1500299099584, 0,  !- X,Y,Z Vertex 3 {m}
  96.2250448649376, 64.1500299099584, 3.2; !- X,Y,Z Vertex 4 {m}

OS:Surface,
  {76c3e0e1-9526-41c8-ba3f-1fe068d55553}, !- Handle
  Surface 22,                             !- Name
  Wall,                                   !- Surface Type
  ,                                       !- Construction Name
  {f3ce1c0d-1d53-4de8-adfb-5a9fe9ee2a0a}, !- Space Name
  Surface,                                !- Outside Boundary Condition
  {73ea2d82-14e5-48ce-b93d-4ac923fdec07}, !- Outside Boundary Condition Object
  NoSun,                                  !- Sun Exposure
  NoWind,                                 !- Wind Exposure
  ,                                       !- View Factor to Ground
  ,                                       !- Number of Vertices
  27.5050149549792, 59.5800299099584, 3.2, !- X,Y,Z Vertex 1 {m}
  27.5050149549792, 59.5800299099584, 0,  !- X,Y,Z Vertex 2 {m}
  91.6550448649376, 59.5800299099584, 0,  !- X,Y,Z Vertex 3 {m}
  91.6550448649376, 59.5800299099584, 3.2; !- X,Y,Z Vertex 4 {m}

OS:Surface,
  {8a657508-c63b-4a6f-ae2f-7ec1b5e74913}, !- Handle
  Surface 23,                             !- Name
  Wall,                                   !- Surface Type
  ,                                       !- Construction Name
  {f3ce1c0d-1d53-4de8-adfb-5a9fe9ee2a0a}, !- Space Name
  Surface,                                !- Outside Boundary Condition
  {2cf0c6f0-7aca-4d4c-8ecc-2494ee377e6a}, !- Outside Boundary Condition Object
  NoSun,                                  !- Sun Exposure
  NoWind,                                 !- Wind Exposure
  ,                                       !- View Factor to Ground
  ,                                       !- Number of Vertices
  32.0750149549792, 64.1500299099584, 3.2, !- X,Y,Z Vertex 1 {m}
  32.0750149549792, 64.1500299099584, 0,  !- X,Y,Z Vertex 2 {m}
  27.5050149549792, 59.5800299099584, 0,  !- X,Y,Z Vertex 3 {m}
  27.5050149549792, 59.5800299099584, 3.2; !- X,Y,Z Vertex 4 {m}

OS:Surface,
  {7fab5db5-aadf-4acd-b245-50775d7c1a07}, !- Handle
  Surface 24,                             !- Name
  RoofCeiling,                            !- Surface Type
  ,                                       !- Construction Name
  {f3ce1c0d-1d53-4de8-adfb-5a9fe9ee2a0a}, !- Space Name
  Surface,                                !- Outside Boundary Condition
  {7254db16-ee84-4ade-8d4a-62cbc9c87de5}, !- Outside Boundary Condition Object
  NoSun,                                  !- Sun Exposure
  NoWind,                                 !- Wind Exposure
  ,                                       !- View Factor to Ground
  ,                                       !- Number of Vertices
  27.5050149549792, 59.5800299099584, 3.2, !- X,Y,Z Vertex 1 {m}
  91.6550448649376, 59.5800299099584, 3.2, !- X,Y,Z Vertex 2 {m}
  96.2250448649376, 64.1500299099584, 3.2, !- X,Y,Z Vertex 3 {m}
  32.0750149549792, 64.1500299099584, 3.2; !- X,Y,Z Vertex 4 {m}

OS:Space,
  {2c48ac62-fcaa-4192-b0ce-9c2a2a462d2b}, !- Handle
  Story 1 East Lower Perimeter Space,     !- Name
  ,                                       !- Space Type Name
  ,                                       !- Default Construction Set Name
  ,                                       !- Default Schedule Set Name
  -0,                                     !- Direction of Relative North {deg}
  0,                                      !- X Origin {m}
  0,                                      !- Y Origin {m}
  0,                                      !- Z Origin {m}
  {0c1021b0-9858-4acf-81a1-4c22c98300ed}; !- Building Story Name

OS:Surface,
  {c1351ee3-6ef4-4f56-a080-0c6e45a5c047}, !- Handle
  Surface 25,                             !- Name
  Floor,                                  !- Surface Type
  ,                                       !- Construction Name
  {2c48ac62-fcaa-4192-b0ce-9c2a2a462d2b}, !- Space Name
  Ground,                                 !- Outside Boundary Condition
  ,                                       !- Outside Boundary Condition Object
  NoSun,                                  !- Sun Exposure
  NoWind,                                 !- Wind Exposure
  ,                                       !- View Factor to Ground
  ,                                       !- Number of Vertices
  96.2250448649376, 64.1500299099584, 0,  !- X,Y,Z Vertex 1 {m}
  96.2250448649376, 0, 0,                 !- X,Y,Z Vertex 2 {m}
  91.6550448649376, 4.57, 0,              !- X,Y,Z Vertex 3 {m}
  91.6550448649376, 59.5800299099584, 0;  !- X,Y,Z Vertex 4 {m}

OS:Surface,
  {89f2640d-8cb8-4863-bfd5-ddd6e379943f}, !- Handle
  Surface 26,                             !- Name
  Wall,                                   !- Surface Type
  ,                                       !- Construction Name
  {2c48ac62-fcaa-4192-b0ce-9c2a2a462d2b}, !- Space Name
  Outdoors,                               !- Outside Boundary Condition
  ,                                       !- Outside Boundary Condition Object
  SunExposed,                             !- Sun Exposure
  WindExposed,                            !- Wind Exposure
  ,                                       !- View Factor to Ground
  ,                                       !- Number of Vertices
  96.2250448649376, 0, 3.2,               !- X,Y,Z Vertex 1 {m}
  96.2250448649376, 0, 0,                 !- X,Y,Z Vertex 2 {m}
  96.2250448649376, 64.1500299099584, 0,  !- X,Y,Z Vertex 3 {m}
  96.2250448649376, 64.1500299099584, 3.2; !- X,Y,Z Vertex 4 {m}

OS:Surface,
  {d925155e-f121-4214-9a8c-f3bc9125e932}, !- Handle
  Surface 27,                             !- Name
  Wall,                                   !- Surface Type
  ,                                       !- Construction Name
  {2c48ac62-fcaa-4192-b0ce-9c2a2a462d2b}, !- Space Name
  Surface,                                !- Outside Boundary Condition
  {ee5f9b42-032e-4837-ab00-02cac4bda4e3}, !- Outside Boundary Condition Object
  NoSun,                                  !- Sun Exposure
  NoWind,                                 !- Wind Exposure
  ,                                       !- View Factor to Ground
  ,                                       !- Number of Vertices
  91.6550448649376, 4.57, 3.2,            !- X,Y,Z Vertex 1 {m}
  91.6550448649376, 4.57, 0,              !- X,Y,Z Vertex 2 {m}
  96.2250448649376, 0, 0,                 !- X,Y,Z Vertex 3 {m}
  96.2250448649376, 0, 3.2;               !- X,Y,Z Vertex 4 {m}

OS:Surface,
  {80956f19-faa2-4857-97a8-91e39aa2abf6}, !- Handle
  Surface 28,                             !- Name
  Wall,                                   !- Surface Type
  ,                                       !- Construction Name
  {2c48ac62-fcaa-4192-b0ce-9c2a2a462d2b}, !- Space Name
  Surface,                                !- Outside Boundary Condition
  {1ce4db0e-a17b-4e58-bd4c-9096830a1b32}, !- Outside Boundary Condition Object
  NoSun,                                  !- Sun Exposure
  NoWind,                                 !- Wind Exposure