
OS:Version,
  {4c8a8eb1-2a56-497e-9558-1b05eb749121}, !- Handle
  2.6.0;                                  !- Version Identifier

OS:BuildingStory,
  {31e20dec-9c1b-4daf-b1b4-b7ef9be772ca}, !- Handle
  Story 1,                                !- Name
  0,                                      !- Nominal Z Coordinate {m}
  3.2,                                    !- Nominal Floor to Floor Height {m}
  ,                                       !- Default Construction Set Name
  ,                                       !- Default Schedule Set Name
  ;                                       !- Group Rendering Name

OS:Space,
  {19a22369-71b3-4fed-b1d1-c1eb049f4bc5}, !- Handle
  Story 1 West Lower Perimeter Space,     !- Name
  ,                                       !- Space Type Name
  ,                                       !- Default Construction Set Name
  ,                                       !- Default Schedule Set Name
  -0,                                     !- Direction of Relative North {deg}
  0,                                      !- X Origin {m}
  0,                                      !- Y Origin {m}
  0,                                      !- Z Origin {m}
  {31e20dec-9c1b-4daf-b1b4-b7ef9be772ca}; !- Building Story Name

OS:Surface,
  {0c5c1489-95df-4e53-a01e-faeaf2875527}, !- Handle
  Surface 1,                              !- Name
  Floor,                                  !- Surface Type
  ,                                       !- Construction Name
  {19a22369-71b3-4fed-b1d1-c1eb049f4bc5}, !- Space Name
  Ground,                                 !- Outside Boundary Condition
  ,                                       !- Outside Boundary Condition Object
  NoSun,                                  !- Sun Exposure
  NoWind,                                 !- Wind Exposure
  ,                                       !- View Factor to Ground
  ,                                       !- Number of Vertices
  24.0562612162344, 0, 0,                 !- X,Y,Z Vertex 1 {m}
  24.0562612162344, 160.375074774896, 0,  !- X,Y,Z Vertex 2 {m}
  28.6262612162344, 164.945074774896, 0,  !- X,Y,Z Vertex 3 {m}
  28.6262612162344, 4.57, 0;              !- X,Y,Z Vertex 4 {m}

OS:Surface,
  {ee59f3ca-2a71-4e57-ae89-56c6c6fcd4ea}, !- Handle
  Surface 2,                              !- Name
  Wall,                                   !- Surface Type
  ,                                       !- Construction Name
  {19a22369-71b3-4fed-b1d1-c1eb049f4bc5}, !- Space Name
  Outdoors,                               !- Outside Boundary Condition
  ,                                       !- Outside Boundary Condition Object
  SunExposed,                             !- Sun Exposure
  WindExposed,                            !- Wind Exposure
  ,                                       !- View Factor to Ground
  ,                                       !- Number of Vertices
  24.0562612162344, 160.375074774896, 3.2, !- X,Y,Z Vertex 1 {m}
  24.0562612162344, 160.375074774896, 0,  !- X,Y,Z Vertex 2 {m}
  24.0562612162344, 0, 0,                 !- X,Y,Z Vertex 3 {m}
  24.0562612162344, 0, 3.2;               !- X,Y,Z Vertex 4 {m}

OS:Surface,
  {6cb2993c-bf98-4b4f-82bc-1c30f2f99947}, !- Handle
  Surface 3,                              !- Name
  Wall,                                   !- Surface Type
  ,                                       !- Construction Name
  {19a22369-71b3-4fed-b1d1-c1eb049f4bc5}, !- Space Name
  Surface,                                !- Outside Boundary Condition
  {73c153b8-abba-40fa-b0c9-3924deb45b83}, !- Outside Boundary Condition Object
  NoSun,                                  !- Sun Exposure
  NoWind,                                 !- Wind Exposure
  ,                                       !- View Factor to Ground
  ,                                       !- Number of Vertices
  28.6262612162344, 164.945074774896, 3.2, !- X,Y,Z Vertex 1 {m}
  28.6262612162344, 164.945074774896, 0,  !- X,Y,Z Vertex 2 {m}
  24.0562612162344, 160.375074774896, 0,  !- X,Y,Z Vertex 3 {m}
  24.0562612162344, 160.375074774896, 3.2; !- X,Y,Z Vertex 4 {m}

OS:Surface,
  {3f65cee2-6899-496b-8c08-076f17a54ba9}, !- Handle
  Surface 4,                              !- Name
  Wall,                                   !- Surface Type
  ,                                       !- Construction Name
  {19a22369-71b3-4fed-b1d1-c1eb049f4bc5}, !- Space Name
  Surface,                                !- Outside Boundary Condition
  {13448128-1904-4e32-b1ea-4cc5f2a38a75}, !- Outside Boundary Condition Object
  NoSun,                                  !- Sun Exposure
  NoWind,                                 !- Wind Exposure
  ,                                       !- View Factor to Ground
  ,                                       !- Number of Vertices
  28.6262612162344, 4.57, 3.2,            !- X,Y,Z Vertex 1 {m}
  28.6262612162344, 4.57, 0,              !- X,Y,Z Vertex 2 {m}
  28.6262612162344, 164.945074774896, 0,  !- X,Y,Z Vertex 3 {m}
  28.6262612162344, 164.945074774896, 3.2; !- X,Y,Z Vertex 4 {m}

OS:Surface,
  {0c10ecdb-c1d8-44dd-88d0-e7cb6d92876b}, !- Handle
  Surface 5,                              !- Name
  Wall,                                   !- Surface Type
  ,                                       !- Construction Name
  {19a22369-71b3-4fed-b1d1-c1eb049f4bc5}, !- Space Name
  Surface,                                !- Outside Boundary Condition
  {6cc5a2fe-f468-401b-bb6f-6cf30e8128a1}, !- Outside Boundary Condition Object
  NoSun,                                  !- Sun Exposure
  NoWind,                                 !- Wind Exposure
  ,                                       !- View Factor to Ground
  ,                                       !- Number of Vertices
  24.0562612162344, 0, 3.2,               !- X,Y,Z Vertex 1 {m}
  24.0562612162344, 0, 0,                 !- X,Y,Z Vertex 2 {m}
  28.6262612162344, 4.57, 0,              !- X,Y,Z Vertex 3 {m}
  28.6262612162344, 4.57, 3.2;            !- X,Y,Z Vertex 4 {m}

OS:Surface,
  {7c5cf4c0-c347-4b56-a092-dcaead37c673}, !- Handle
  Surface 6,                              !- Name
  RoofCeiling,                            !- Surface Type
  ,                                       !- Construction Name
  {19a22369-71b3-4fed-b1d1-c1eb049f4bc5}, !- Space Name
  Surface,                                !- Outside Boundary Condition
  {9985de3e-bdd5-40f5-be34-f19c2dfcb332}, !- Outside Boundary Condition Object
  NoSun,                                  !- Sun Exposure
  NoWind,                                 !- Wind Exposure
  ,                                       !- View Factor to Ground
  ,                                       !- Number of Vertices
  28.6262612162344, 4.57, 3.2,            !- X,Y,Z Vertex 1 {m}
  28.6262612162344, 164.945074774896, 3.2, !- X,Y,Z Vertex 2 {m}
  24.0562612162344, 160.375074774896, 3.2, !- X,Y,Z Vertex 3 {m}
  24.0562612162344, 0, 3.2;               !- X,Y,Z Vertex 4 {m}

OS:Space,
  {6cd5b55a-812c-4e7f-ac51-92dd3bb103f8}, !- Handle
  Story 1 South Upper Left Perimeter Space, !- Name
  ,                                       !- Space Type Name
  ,                                       !- Default Construction Set Name
  ,                                       !- Default Schedule Set Name
  -0,                                     !- Direction of Relative North {deg}
  0,                                      !- X Origin {m}
  0,                                      !- Y Origin {m}
  0,                                      !- Z Origin {m}
  {31e20dec-9c1b-4daf-b1b4-b7ef9be772ca}; !- Building Story Name

OS:Surface,
  {28946681-b1c0-4da4-9967-332453d810d5}, !- Handle
  Surface 7,                              !- Name
  Floor,                                  !- Surface Type
  ,                                       !- Construction Name
  {6cd5b55a-812c-4e7f-ac51-92dd3bb103f8}, !- Space Name
  Ground,                                 !- Outside Boundary Condition
  ,                                       !- Outside Boundary Condition Object
  NoSun,                                  !- Sun Exposure
  NoWind,                                 !- Wind Exposure
  ,                                       !- View Factor to Ground
  ,                                       !- Number of Vertices
  24.0562612162344, 160.375074774896, 0,  !- X,Y,Z Vertex 1 {m}
  0, 160.375074774896, 0,                 !- X,Y,Z Vertex 2 {m}
  4.57, 164.945074774896, 0,              !- X,Y,Z Vertex 3 {m}
  28.6262612162344, 164.945074774896, 0;  !- X,Y,Z Vertex 4 {m}

OS:Surface,
  {cc55e034-513b-4161-82b8-401a28d08c0f}, !- Handle
  Surface 8,                              !- Name
  Wall,                                   !- Surface Type
  ,                                       !- Construction Name
  {6cd5b55a-812c-4e7f-ac51-92dd3bb103f8}, !- Space Name
  Outdoors,                               !- Outside Boundary Condition
  ,                                       !- Outside Boundary Condition Object
  SunExposed,                             !- Sun Exposure
  WindExposed,                            !- Wind Exposure
  ,                                       !- View Factor to Ground
  ,                                       !- Number of Vertices
  0, 160.375074774896, 3.2,               !- X,Y,Z Vertex 1 {m}
  0, 160.375074774896, 0,                 !- X,Y,Z Vertex 2 {m}
  24.0562612162344, 160.375074774896, 0,  !- X,Y,Z Vertex 3 {m}
  24.0562612162344, 160.375074774896, 3.2; !- X,Y,Z Vertex 4 {m}

OS:Surface,
  {4dfcc0cf-4195-493b-af14-c791767b5a8f}, !- Handle
  Surface 9,                              !- Name
  Wall,                                   !- Surface Type
  ,                                       !- Construction Name
  {6cd5b55a-812c-4e7f-ac51-92dd3bb103f8}, !- Space Name
  Surface,                                !- Outside Boundary Condition
  {8e47ef2e-e26c-46a9-8348-ae570ab19ee5}, !- Outside Boundary Condition Object
  NoSun,                                  !- Sun Exposure
  NoWind,                                 !- Wind Exposure
  ,                                       !- View Factor to Ground
  ,                                       !- Number of Vertices
  4.57, 164.945074774896, 3.2,            !- X,Y,Z Vertex 1 {m}
  4.57, 164.945074774896, 0,              !- X,Y,Z Vertex 2 {m}
  0, 160.375074774896, 0,                 !- X,Y,Z Vertex 3 {m}
  0, 160.375074774896, 3.2;               !- X,Y,Z Vertex 4 {m}

OS:Surface,
  {6d3db7d1-12fb-455b-a0d5-576a70ba633f}, !- Handle
  Surface 10,                             !- Name
  Wall,                                   !- Surface Type
  ,                                       !- Construction Name
  {6cd5b55a-812c-4e7f-ac51-92dd3bb103f8}, !- Space Name
  Surface,                                !- Outside Boundary Condition
  {b8092a54-6cd6-408d-a9ba-faea477ee7ee}, !- Outside Boundary Condition Object
  NoSun,                                  !- Sun Exposure
  NoWind,                                 !- Wind Exposure
  ,                                       !- View Factor to Ground
  ,                                       !- Number of Vertices
  28.6262612162344, 164.945074774896, 3.2, !- X,Y,Z Vertex 1 {m}
  28.6262612162344, 164.945074774896, 0,  !- X,Y,Z Vertex 2 {m}
  4.57, 164.945074774896, 0,              !- X,Y,Z Vertex 3 {m}
  4.57, 164.945074774896, 3.2;            !- X,Y,Z Vertex 4 {m}

OS:Surface,
  {73c153b8-abba-40fa-b0c9-3924deb45b83}, !- Handle
  Surface 11,                             !- Name
  Wall,                                   !- Surface Type
  ,                                       !- Construction Name
  {6cd5b55a-812c-4e7f-ac51-92dd3bb103f8}, !- Space Name
  Surface,                                !- Outside Boundary Condition
  {6cb2993c-bf98-4b4f-82bc-1c30f2f99947}, !- Outside Boundary Condition Object
  NoSun,                                  !- Sun Exposure
  NoWind,                                 !- Wind Exposure
  ,                                       !- View Factor to Ground
  ,                                       !- Number of Vertices
  24.0562612162344, 160.375074774896, 3.2, !- X,Y,Z Vertex 1 {m}
  24.0562612162344, 160.375074774896, 0,  !- X,Y,Z Vertex 2 {m}
  28.6262612162344, 164.945074774896, 0,  !- X,Y,Z Vertex 3 {m}
  28.6262612162344, 164.945074774896, 3.2; !- X,Y,Z Vertex 4 {m}

OS:Surface,
  {addcd729-78bf-4563-934a-1385d0dbea96}, !- Handle
  Surface 12,                             !- Name
  RoofCeiling,                            !- Surface Type
  ,                                       !- Construction Name
  {6cd5b55a-812c-4e7f-ac51-92dd3bb103f8}, !- Space Name
  Surface,                                !- Outside Boundary Condition
  {ddb09c79-51b4-4560-8d54-5a9a785e5db0}, !- Outside Boundary Condition Object
  NoSun,                                  !- Sun Exposure
  NoWind,                                 !- Wind Exposure
  ,                                       !- View Factor to Ground
  ,                                       !- Number of Vertices
  28.6262612162344, 164.945074774896, 3.2, !- X,Y,Z Vertex 1 {m}
  4.57, 164.945074774896, 3.2,            !- X,Y,Z Vertex 2 {m}
  0, 160.375074774896, 3.2,               !- X,Y,Z Vertex 3 {m}
  24.0562612162344, 160.375074774896, 3.2; !- X,Y,Z Vertex 4 {m}

OS:Space,
  {33c42876-2f72-4b06-9315-0f10718d7a03}, !- Handle
  Story 1 West Upper Perimeter Space,     !- Name
  ,                                       !- Space Type Name
  ,                                       !- Default Construction Set Name
  ,                                       !- Default Schedule Set Name
  -0,                                     !- Direction of Relative North {deg}
  0,                                      !- X Origin {m}
  0,                                      !- Y Origin {m}
  0,                                      !- Z Origin {m}
  {31e20dec-9c1b-4daf-b1b4-b7ef9be772ca}; !- Building Story Name

OS:Surface,
  {5733228a-58a5-43dc-8500-c898c62c27b9}, !- Handle
  Surface 13,                             !- Name
  Floor,                                  !- Surface Type
  ,                                       !- Construction Name
  {33c42876-2f72-4b06-9315-0f10718d7a03}, !- Space Name
  Ground,                                 !- Outside Boundary Condition
  ,                                       !- Outside Boundary Condition Object
  NoSun,                                  !- Sun Exposure
  NoWind,                                 !- Wind Exposure
  ,                                       !- View Factor to Ground
  ,                                       !- Number of Vertices
  0, 160.375074774896, 0,                 !- X,Y,Z Vertex 1 {m}
  0, 192.450089729875, 0,                 !- X,Y,Z Vertex 2 {m}
  4.57, 187.880089729875, 0,              !- X,Y,Z Vertex 3 {m}
  4.57, 164.945074774896, 0;              !- X,Y,Z Vertex 4 {m}

OS:Surface,
  {49b17f20-bf88-44e7-8d19-8d5733a4ae30}, !- Handle
  Surface 14,                             !- Name
  Wall,                                   !- Surface Type
  ,                                       !- Construction Name
  {33c42876-2f72-4b06-9315-0f10718d7a03}, !- Space Name
  Outdoors,                               !- Outside Boundary Condition
  ,                                       !- Outside Boundary Condition Object
  SunExposed,                             !- Sun Exposure
  WindExposed,                            !- Wind Exposure
  ,                                       !- View Factor to Ground
  ,                                       !- Number of Vertices
  0, 192.450089729875, 3.2,               !- X,Y,Z Vertex 1 {m}
  0, 192.450089729875, 0,                 !- X,Y,Z Vertex 2 {m}
  0, 160.375074774896, 0,                 !- X,Y,Z Vertex 3 {m}
  0, 160.375074774896, 3.2;               !- X,Y,Z Vertex 4 {m}

OS:Surface,
  {10410541-9e3b-46c5-9820-72e573b8aad6}, !- Handle
  Surface 15,                             !- Name
  Wall,                                   !- Surface Type
  ,                                       !- Construction Name
  {33c42876-2f72-4b06-9315-0f10718d7a03}, !- Space Name
  Surface,                                !- Outside Boundary Condition
  {cbdc89aa-3e92-4e88-969e-e74515d34050}, !- Outside Boundary Condition Object
  NoSun,                                  !- Sun Exposure
  NoWind,                                 !- Wind Exposure
  ,                                       !- View Factor to Ground
  ,                                       !- Number of Vertices
  4.57, 187.880089729875, 3.2,            !- X,Y,Z Vertex 1 {m}
  4.57, 187.880089729875, 0,              !- X,Y,Z Vertex 2 {m}
  0, 192.450089729875, 0,                 !- X,Y,Z Vertex 3 {m}
  0, 192.450089729875, 3.2;               !- X,Y,Z Vertex 4 {m}

OS:Surface,
  {73710477-e42a-4731-869f-68d28393d326}, !- Handle
  Surface 16,                             !- Name
  Wall,                                   !- Surface Type
  ,                                       !- Construction Name
  {33c42876-2f72-4b06-9315-0f10718d7a03}, !- Space Name
  Surface,                                !- Outside Boundary Condition
  {47e5afd4-3f75-49c2-9e35-a04e260d2f21}, !- Outside Boundary Condition Object
  NoSun,                                  !- Sun Exposure
  NoWind,                                 !- Wind Exposure
  ,                                       !- View Factor to Ground
  ,                                       !- Number of Vertices
  4.57, 164.945074774896, 3.2,            !- X,Y,Z Vertex 1 {m}
  4.57, 164.945074774896, 0,              !- X,Y,Z Vertex 2 {m}
  4.57, 187.880089729875, 0,              !- X,Y,Z Vertex 3 {m}
  4.57, 187.880089729875, 3.2;            !- X,Y,Z Vertex 4 {m}

OS:Surface,
  {8e47ef2e-e26c-46a9-8348-ae570ab19ee5}, !- Handle
  Surface 17,                             !- Name
  Wall,                                   !- Surface Type
  ,                                       !- Construction Name
  {33c42876-2f72-4b06-9315-0f10718d7a03}, !- Space Name
  Surface,                                !- Outside Boundary Condition
  {4dfcc0cf-4195-493b-af14-c791767b5a8f}, !- Outside Boundary Condition Object
  NoSun,                                  !- Sun Exposure
  NoWind,                                 !- Wind Exposure
  ,                                       !- View Factor to Ground
  ,                                       !- Number of Vertices
  0, 160.375074774896, 3.2,               !- X,Y,Z Vertex 1 {m}
  0, 160.375074774896, 0,                 !- X,Y,Z Vertex 2 {m}
  4.57, 164.945074774896, 0,              !- X,Y,Z Vertex 3 {m}
  4.57, 164.945074774896, 3.2;            !- X,Y,Z Vertex 4 {m}

OS:Surface,
  {3fe74df6-55b2-4bc8-b563-c47ea8e3cd97}, !- Handle
  Surface 18,                             !- Name
  RoofCeiling,                            !- Surface Type
  ,                                       !- Construction Name
  {33c42876-2f72-4b06-9315-0f10718d7a03}, !- Space Name
  Surface,                                !- Outside Boundary Condition
  {fa1c4c13-0958-4b7f-ad21-dfa28a0459b3}, !- Outside Boundary Condition Object
  NoSun,                                  !- Sun Exposure
  NoWind,                                 !- Wind Exposure
  ,                                       !- View Factor to Ground
  ,                                       !- Number of Vertices
  4.57, 164.945074774896, 3.2,            !- X,Y,Z Vertex 1 {m}
  4.57, 187.880089729875, 3.2,            !- X,Y,Z Vertex 2 {m}
  0, 192.450089729875, 3.2,               !- X,Y,Z Vertex 3 {m}
  0, 160.375074774896, 3.2;               !- X,Y,Z Vertex 4 {m}

OS:Space,
  {291dfff2-745d-4162-8df8-b3e2d5adccd0}, !- Handle
  Story 1 North Perimeter Space,          !- Name
  ,                                       !- Space Type Name
  ,                                       !- Default Construction Set Name
  ,                                       !- Default Schedule Set Name
  -0,                                     !- Direction of Relative North {deg}
  0,                                      !- X Origin {m}
  0,                                      !- Y Origin {m}
  0,                                      !- Z Origin {m}
  {31e20dec-9c1b-4daf-b1b4-b7ef9be772ca}; !- Building Story Name

OS:Surface,
  {fd5db433-bedb-4238-aa5d-0fb243240721}, !- Handle
  Surface 19,                             !- Name
  Floor,                                  !- Surface Type
  ,                                       !- Construction Name
  {291dfff2-745d-4162-8df8-b3e2d5adccd0}, !- Space Name
  Ground,                                 !- Outside Boundary Condition
  ,                                       !- Outside Boundary Condition Object
  NoSun,                                  !- Sun Exposure
  NoWind,                                 !- Wind Exposure
  ,                                       !- View Factor to Ground
  ,                                       !- Number of Vertices
  0, 192.450089729875, 0,                 !- X,Y,Z Vertex 1 {m}
  96.2250448649376, 192.450089729875, 0,  !- X,Y,Z Vertex 2 {m}
  91.6550448649376, 187.880089729875, 0,  !- X,Y,Z Vertex 3 {m}
  4.57, 187.880089729875, 0;              !- X,Y,Z Vertex 4 {m}

OS:Surface,
  {85c028a7-7809-4505-ab2f-fb4625d195e3}, !- Handle
  Surface 20,                             !- Name
  Wall,                                   !- Surface Type
  ,                                       !- Construction Name
  {291dfff2-745d-4162-8df8-b3e2d5adccd0}, !- Space Name
  Outdoors,                               !- Outside Boundary Condition
  ,                                       !- Outside Boundary Condition Object
  SunExposed,                             !- Sun Exposure
  WindExposed,                            !- Wind Exposure
  ,                                       !- View Factor to Ground
  ,                                       !- Number of Vertices
  96.2250448649376, 192.450089729875, 3.2, !- X,Y,Z Vertex 1 {m}
  96.2250448649376, 192.450089729875, 0,  !- X,Y,Z Vertex 2 {m}
  0, 192.450089729875, 0,                 !- X,Y,Z Vertex 3 {m}
  0, 192.450089729875, 3.2;               !- X,Y,Z Vertex 4 {m}

OS:Surface,
  {685929d7-246c-4fa5-a0b1-f85f4e9eea9e}, !- Handle
  Surface 21,                             !- Name
  Wall,                                   !- Surface Type
  ,                                       !- Construction Name
  {291dfff2-745d-4162-8df8-b3e2d5adccd0}, !- Space Name
  Surface,                                !- Outside Boundary Condition
  {45b274e1-882c-45bb-a3b8-20366e25e186}, !- Outside Boundary Condition Object
  NoSun,                                  !- Sun Exposure
  NoWind,                                 !- Wind Exposure
  ,                                       !- View Factor to Ground
  ,                                       !- Number of Vertices
  91.6550448649376, 187.880089729875, 3.2, !- X,Y,Z Vertex 1 {m}
  91.6550448649376, 187.880089729875, 0,  !- X,Y,Z Vertex 2 {m}
  96.2250448649376, 192.450089729875, 0,  !- X,Y,Z Vertex 3 {m}
  96.2250448649376, 192.450089729875, 3.2; !- X,Y,Z Vertex 4 {m}

OS:Surface,
  {9e896fe1-8c25-41dd-9ae8-079b0267e3e6}, !- Handle
  Surface 22,                             !- Name
  Wall,                                   !- Surface Type
  ,                                       !- Construction Name
  {291dfff2-745d-4162-8df8-b3e2d5adccd0}, !- Space Name
  Surface,                                !- Outside Boundary Condition
  {28320d65-d8d0-4f40-969b-49ad9c24a930}, !- Outside Boundary Condition Object
  NoSun,                                  !- Sun Exposure
  NoWind,                                 !- Wind Exposure
  ,                                       !- View Factor to Ground
  ,                                       !- Number of Vertices
  4.57, 187.880089729875, 3.2,            !- X,Y,Z Vertex 1 {m}
  4.57, 187.880089729875, 0,              !- X,Y,Z Vertex 2 {m}
  91.6550448649376, 187.880089729875, 0,  !- X,Y,Z Vertex 3 {m}
  91.6550448649376, 187.880089729875, 3.2; !- X,Y,Z Vertex 4 {m}

OS:Surface,
  {cbdc89aa-3e92-4e88-969e-e74515d34050}, !- Handle
  Surface 23,                             !- Name
  Wall,                                   !- Surface Type
  ,                                       !- Construction Name
  {291dfff2-745d-4162-8df8-b3e2d5adccd0}, !- Space Name
  Surface,                                !- Outside Boundary Condition
  {10410541-9e3b-46c5-9820-72e573b8aad6}, !- Outside Boundary Condition Object
  NoSun,                                  !- Sun Exposure
  NoWind,                                 !- Wind Exposure
  ,                                       !- View Factor to Ground
  ,                                       !- Number of Vertices
  0, 192.450089729875, 3.2,               !- X,Y,Z Vertex 1 {m}
  0, 192.450089729875, 0,                 !- X,Y,Z Vertex 2 {m}
  4.57, 187.880089729875, 0,              !- X,Y,Z Vertex 3 {m}
  4.57, 187.880089729875, 3.2;            !- X,Y,Z Vertex 4 {m}

OS:Surface,
  {5ae8e76c-5761-4a66-ae4c-e2a9126d43ac}, !- Handle
  Surface 24,                             !- Name
  RoofCeiling,                            !- Surface Type
  ,                                       !- Construction Name
  {291dfff2-745d-4162-8df8-b3e2d5adccd0}, !- Space Name
  Surface,                                !- Outside Boundary Condition
  {2632601b-28e0-4757-9074-3287b54dce33}, !- Outside Boundary Condition Object
  NoSun,                                  !- Sun Exposure
  NoWind,                                 !- Wind Exposure
  ,                                       !- View Factor to Ground
  ,                                       !- Number of Vertices
  4.57, 187.880089729875, 3.2,            !- X,Y,Z Vertex 1 {m}
  91.6550448649376, 187.880089729875, 3.2, !- X,Y,Z Vertex 2 {m}
  96.2250448649376, 192.450089729875, 3.2, !- X,Y,Z Vertex 3 {m}
  0, 192.450089729875, 3.2;               !- X,Y,Z Vertex 4 {m}

OS:Space,
  {e1019aed-16c6-4c13-bf3a-4ae234f8f481}, !- Handle
  Story 1 East Upper Perimeter Space,     !- Name
  ,                                       !- Space Type Name
  ,                                       !- Default Construction Set Name
  ,                                       !- Default Schedule Set Name
  -0,                                     !- Direction of Relative North {deg}
  0,                                      !- X Origin {m}
  0,                                      !- Y Origin {m}
  0,                                      !- Z Origin {m}
  {31e20dec-9c1b-4daf-b1b4-b7ef9be772ca}; !- Building Story Name

OS:Surface,
  {8e21c69f-314e-4529-89bc-006e02dd92ae}, !- Handle
  Surface 25,                             !- Name
  Floor,                                  !- Surface Type
  ,                                       !- Construction Name
  {e1019aed-16c6-4c13-bf3a-4ae234f8f481}, !- Space Name
  Ground,                                 !- Outside Boundary Condition
  ,                                       !- Outside Boundary Condition Object
  NoSun,                                  !- Sun Exposure
  NoWind,                                 !- Wind Exposure
  ,                                       !- View Factor to Ground
  ,                                       !- Number of Vertices
  96.2250448649376, 192.450089729875, 0,  !- X,Y,Z Vertex 1 {m}
  96.2250448649376, 160.375074774896, 0,  !- X,Y,Z Vertex 2 {m}
  91.6550448649376, 164.945074774896, 0,  !- X,Y,Z Vertex 3 {m}
  91.6550448649376, 187.880089729875, 0;  !- X,Y,Z Vertex 4 {m}

OS:Surface,
  {7b25087e-628c-4468-9330-15df18eb822f}, !- Handle
  Surface 26,                             !- Name
  Wall,                                   !- Surface Type
  ,                                       !- Construction Name
  {e1019aed-16c6-4c13-bf3a-4ae234f8f481}, !- Space Name
  Outdoors,                               !- Outside Boundary Condition
  ,                                       !- Outside Boundary Condition Object
  SunExposed,                             !- Sun Exposure
  WindExposed,                            !- Wind Exposure
  ,                                       !- View Factor to Ground
  ,                                       !- Number of Vertices
  96.2250448649376, 160.375074774896, 3.2, !- X,Y,Z Vertex 1 {m}
  96.2250448649376, 160.375074774896, 0,  !- X,Y,Z Vertex 2 {m}
  96.2250448649376, 192.450089729875, 0,  !- X,Y,Z Vertex 3 {m}
  96.2250448649376, 192.450089729875, 3.2; !- X,Y,Z Vertex 4 {m}

OS:Surface,
  {0ea4c9e0-b563-433f-8f0f-3744b53d342a}, !- Handle
  Surface 27,                             !- Name
  Wall,                                   !- Surface Type
  ,                                       !- Construction Name
  {e1019aed-16c6-4c13-bf3a-4ae234f8f481}, !- Space Name
  Surface,                                !- Outside Boundary Condition
  {6edab9ac-e811-474b-a337-e05d98eaf7cd}, !- Outside Boundary Condition Object
  NoSun,                                  !- Sun Exposure
  NoWind,                                 !- Wind Exposure
  ,                                       !- View Factor to Ground
  ,                                       !- Number of Vertices
  91.6550448649376, 164.945074774896, 3.2, !- X,Y,Z Vertex 1 {m}
  91.6550448649376, 164.945074774896, 0,  !- X,Y,Z Vertex 2 {m}
  96.2250448649376, 160.375074774896, 0,  !- X,Y,Z Vertex 3 {m}
  96.2250448649376, 160.375074774896, 3.2; !- X,Y,Z Vertex 4 {m}

OS:Surface,
  {dcf1815b-33a4-4e4c-a76f-a4387dadd3d4}, !- Handle
  Surface 28,                             !- Name
  Wall,                                   !- Surface Type
  ,                                       !- Construction Name
  {e1019aed-16c6-4c13-bf3a-4ae234f8f481}, !- Space Name
  Surface,                                !- Outside Boundary Condition
  {1ff4e82b-cbc1-40b4-943b-bdf55094df23}, !- Outside Boundary Condition Object
  NoSun,                                  !- Sun Exposure
  NoWind,                                 !- Wind Exposure