
OS:Version,
  {269483bd-111b-4321-a973-bf14a9d34626}, !- Handle
  2.6.0;                                  !- Version Identifier

OS:BuildingStory,
  {c6fed687-8c96-4ad4-869e-f8dedfe7b8fa}, !- Handle
  Story 1,                                !- Name
  0,                                      !- Nominal Z Coordinate {m}
  3.2,                                    !- Nominal Floor to Floor Height {m}
  ,                                       !- Default Construction Set Name
  ,                                       !- Default Schedule Set Name
  ;                                       !- Group Rendering Name

OS:Space,
  {1d6644cb-5bc4-44de-97e1-7236af0663dc}, !- Handle
  Story 1 West Left Perimeter Space,      !- Name
  ,                                       !- Space Type Name
  ,                                       !- Default Construction Set Name
  ,                                       !- Default Schedule Set Name
  -0,                                     !- Direction of Relative North {deg}
  0,                                      !- X Origin {m}
  0,                                      !- Y Origin {m}
  0,                                      !- Z Origin {m}
  {c6fed687-8c96-4ad4-869e-f8dedfe7b8fa}; !- Building Story Name

OS:Surface,
  {7c643d64-af8d-4d93-814e-7f05860d4680}, !- Handle
  Surface 1,                              !- Name
  Floor,                                  !- Surface Type
  ,                                       !- Construction Name
  {1d6644cb-5bc4-44de-97e1-7236af0663dc}, !- Space Name
  Ground,                                 !- Outside Boundary Condition
  ,                                       !- Outside Boundary Condition Object
  NoSun,                                  !- Sun Exposure
  NoWind,                                 !- Wind Exposure
  ,                                       !- View Factor to Ground
  ,                                       !- Number of Vertices
  0, 0, 0,                                !- X,Y,Z Vertex 1 {m}
  0, 75.9033390071081, 0,                 !- X,Y,Z Vertex 2 {m}
  4.57, 71.3333390071081, 0,              !- X,Y,Z Vertex 3 {m}
  4.57, 4.57, 0;                          !- X,Y,Z Vertex 4 {m}

OS:Surface,
  {35d94b39-7750-4f40-8678-ed426d9283e0}, !- Handle
  Surface 2,                              !- Name
  Wall,                                   !- Surface Type
  ,                                       !- Construction Name
  {1d6644cb-5bc4-44de-97e1-7236af0663dc}, !- Space Name
  Outdoors,                               !- Outside Boundary Condition
  ,                                       !- Outside Boundary Condition Object
  SunExposed,                             !- Sun Exposure
  WindExposed,                            !- Wind Exposure
  ,                                       !- View Factor to Ground
  ,                                       !- Number of Vertices
  0, 75.9033390071081, 3.2,               !- X,Y,Z Vertex 1 {m}
  0, 75.9033390071081, 0,                 !- X,Y,Z Vertex 2 {m}
  0, 0, 0,                                !- X,Y,Z Vertex 3 {m}
  0, 0, 3.2;                              !- X,Y,Z Vertex 4 {m}

OS:Surface,
  {6e2feaa0-2c42-461e-b165-db1b34232723}, !- Handle
  Surface 3,                              !- Name
  Wall,                                   !- Surface Type
  ,                                       !- Construction Name
  {1d6644cb-5bc4-44de-97e1-7236af0663dc}, !- Space Name
  Surface,                                !- Outside Boundary Condition
  {d0c764ac-282d-4824-aa55-4073c6b323b1}, !- Outside Boundary Condition Object
  NoSun,                                  !- Sun Exposure
  NoWind,                                 !- Wind Exposure
  ,                                       !- View Factor to Ground
  ,                                       !- Number of Vertices
  4.57, 71.3333390071081, 3.2,            !- X,Y,Z Vertex 1 {m}
  4.57, 71.3333390071081, 0,              !- X,Y,Z Vertex 2 {m}
  0, 75.9033390071081, 0,                 !- X,Y,Z Vertex 3 {m}
  0, 75.9033390071081, 3.2;               !- X,Y,Z Vertex 4 {m}

OS:Surface,
  {68bd9fdd-778d-4476-a7ae-a68bf4ebf4a8}, !- Handle
  Surface 4,                              !- Name
  Wall,                                   !- Surface Type
  ,                                       !- Construction Name
  {1d6644cb-5bc4-44de-97e1-7236af0663dc}, !- Space Name
  Surface,                                !- Outside Boundary Condition
  {f0ec6bc5-5a5d-4bcc-bb07-803a1ffdbf70}, !- Outside Boundary Condition Object
  NoSun,                                  !- Sun Exposure
  NoWind,                                 !- Wind Exposure
  ,                                       !- View Factor to Ground
  ,                                       !- Number of Vertices
  4.57, 4.57, 3.2,                        !- X,Y,Z Vertex 1 {m}
  4.57, 4.57, 0,                          !- X,Y,Z Vertex 2 {m}
  4.57, 71.3333390071081, 0,              !- X,Y,Z Vertex 3 {m}
  4.57, 71.3333390071081, 3.2;            !- X,Y,Z Vertex 4 {m}

OS:Surface,
  {f9483b84-ad86-42d4-8138-358985d0a612}, !- Handle
  Surface 5,                              !- Name
  Wall,                                   !- Surface Type
  ,                                       !- Construction Name
  {1d6644cb-5bc4-44de-97e1-7236af0663dc}, !- Space Name
  Surface,                                !- Outside Boundary Condition
  {cd68d354-024d-4519-8c31-4652c2579537}, !- Outside Boundary Condition Object
  NoSun,                                  !- Sun Exposure
  NoWind,                                 !- Wind Exposure
  ,                                       !- View Factor to Ground
  ,                                       !- Number of Vertices
  0, 0, 3.2,                              !- X,Y,Z Vertex 1 {m}
  0, 0, 0,                                !- X,Y,Z Vertex 2 {m}
  4.57, 4.57, 0,                          !- X,Y,Z Vertex 3 {m}
  4.57, 4.57, 3.2;                        !- X,Y,Z Vertex 4 {m}

OS:Surface,
  {19ef4d4b-843b-4174-a56e-2e341c513601}, !- Handle
  Surface 6,                              !- Name
  RoofCeiling,                            !- Surface Type
  ,                                       !- Construction Name
  {1d6644cb-5bc4-44de-97e1-7236af0663dc}, !- Space Name
  Surface,                                !- Outside Boundary Condition
  {cac0a38a-b1cd-4971-a02b-8ce52774f560}, !- Outside Boundary Condition Object
  NoSun,                                  !- Sun Exposure
  NoWind,                                 !- Wind Exposure
  ,                                       !- View Factor to Ground
  ,                                       !- Number of Vertices
  4.57, 4.57, 3.2,                        !- X,Y,Z Vertex 1 {m}
  4.57, 71.3333390071081, 3.2,            !- X,Y,Z Vertex 2 {m}
  0, 75.9033390071081, 3.2,               !- X,Y,Z Vertex 3 {m}
  0, 0, 3.2;                              !- X,Y,Z Vertex 4 {m}

OS:Space,
  {92cd68e4-45bb-4616-8112-09341abe9582}, !- Handle
  Story 1 North Left Perimeter Space,     !- Name
  ,                                       !- Space Type Name
  ,                                       !- Default Construction Set Name
  ,                                       !- Default Schedule Set Name
  -0,                                     !- Direction of Relative North {deg}
  0,                                      !- X Origin {m}
  0,                                      !- Y Origin {m}
  0,                                      !- Z Origin {m}
  {c6fed687-8c96-4ad4-869e-f8dedfe7b8fa}; !- Building Story Name

OS:Surface,
  {fc08245a-9de3-4680-b725-65445b6b5386}, !- Handle
  Surface 7,                              !- Name
  Floor,                                  !- Surface Type
  ,                                       !- Construction Name
  {92cd68e4-45bb-4616-8112-09341abe9582}, !- Space Name
  Ground,                                 !- Outside Boundary Condition
  ,                                       !- Outside Boundary Condition Object
  NoSun,                                  !- Sun Exposure
  NoWind,                                 !- Wind Exposure
  ,                                       !- View Factor to Ground
  ,                                       !- Number of Vertices
  0, 75.9033390071081, 0,                 !- X,Y,Z Vertex 1 {m}
  11.3855008510662, 75.9033390071081, 0,  !- X,Y,Z Vertex 2 {m}
  6.81550085106622, 71.3333390071081, 0,  !- X,Y,Z Vertex 3 {m}
  4.57, 71.3333390071081, 0;              !- X,Y,Z Vertex 4 {m}

OS:Surface,
  {41b89ff7-3c19-4933-b7f7-814813d93642}, !- Handle
  Surface 8,                              !- Name
  Wall,                                   !- Surface Type
  ,                                       !- Construction Name
  {92cd68e4-45bb-4616-8112-09341abe9582}, !- Space Name
  Outdoors,                               !- Outside Boundary Condition
  ,                                       !- Outside Boundary Condition Object
  SunExposed,                             !- Sun Exposure
  WindExposed,                            !- Wind Exposure
  ,                                       !- View Factor to Ground
  ,                                       !- Number of Vertices
  11.3855008510662, 75.9033390071081, 3.2, !- X,Y,Z Vertex 1 {m}
  11.3855008510662, 75.9033390071081, 0,  !- X,Y,Z Vertex 2 {m}
  0, 75.9033390071081, 0,                 !- X,Y,Z Vertex 3 {m}
  0, 75.9033390071081, 3.2;               !- X,Y,Z Vertex 4 {m}

OS:Surface,
  {8439c037-3461-4665-91b0-69a85170921b}, !- Handle
  Surface 9,                              !- Name
  Wall,                                   !- Surface Type
  ,                                       !- Construction Name
  {92cd68e4-45bb-4616-8112-09341abe9582}, !- Space Name
  Surface,                                !- Outside Boundary Condition
  {20dc0440-0f76-4fe7-81ad-b0982799ad13}, !- Outside Boundary Condition Object
  NoSun,                                  !- Sun Exposure
  NoWind,                                 !- Wind Exposure
  ,                                       !- View Factor to Ground
  ,                                       !- Number of Vertices
  6.81550085106622, 71.3333390071081, 3.2, !- X,Y,Z Vertex 1 {m}
  6.81550085106622, 71.3333390071081, 0,  !- X,Y,Z Vertex 2 {m}
  11.3855008510662, 75.9033390071081, 0,  !- X,Y,Z Vertex 3 {m}
  11.3855008510662, 75.9033390071081, 3.2; !- X,Y,Z Vertex 4 {m}

OS:Surface,
  {acdfda00-1fcd-4a0a-b6c0-e901bc87b484}, !- Handle
  Surface 10,                             !- Name
  Wall,                                   !- Surface Type
  ,                                       !- Construction Name
  {92cd68e4-45bb-4616-8112-09341abe9582}, !- Space Name
  Surface,                                !- Outside Boundary Condition
  {d89013a3-e4c4-4c65-80b1-2836496cc09d}, !- Outside Boundary Condition Object
  NoSun,                                  !- Sun Exposure
  NoWind,                                 !- Wind Exposure
  ,                                       !- View Factor to Ground
  ,                                       !- Number of Vertices
  4.57, 71.3333390071081, 3.2,            !- X,Y,Z Vertex 1 {m}
  4.57, 71.3333390071081, 0,              !- X,Y,Z Vertex 2 {m}
  6.81550085106622, 71.3333390071081, 0,  !- X,Y,Z Vertex 3 {m}
  6.81550085106622, 71.3333390071081, 3.2; !- X,Y,Z Vertex 4 {m}

OS:Surface,
  {d0c764ac-282d-4824-aa55-4073c6b323b1}, !- Handle
  Surface 11,                             !- Name
  Wall,                                   !- Surface Type
  ,                                       !- Construction Name
  {92cd68e4-45bb-4616-8112-09341abe9582}, !- Space Name
  Surface,                                !- Outside Boundary Condition
  {6e2feaa0-2c42-461e-b165-db1b34232723}, !- Outside Boundary Condition Object
  NoSun,                                  !- Sun Exposure
  NoWind,                                 !- Wind Exposure
  ,                                       !- View Factor to Ground
  ,                                       !- Number of Vertices
  0, 75.9033390071081, 3.2,               !- X,Y,Z Vertex 1 {m}
  0, 75.9033390071081, 0,                 !- X,Y,Z Vertex 2 {m}
  4.57, 71.3333390071081, 0,              !- X,Y,Z Vertex 3 {m}
  4.57, 71.3333390071081, 3.2;            !- X,Y,Z Vertex 4 {m}

OS:Surface,
  {2ea8886b-0e57-4719-835a-92365cfd3197}, !- Handle
  Surface 12,                             !- Name
  RoofCeiling,                            !- Surface Type
  ,                                       !- Construction Name
  {92cd68e4-45bb-4616-8112-09341abe9582}, !- Space Name
  Surface,                                !- Outside Boundary Condition
  {cc2d7175-ffd4-40cd-a433-9c2f32c28ca0}, !- Outside Boundary Condition Object
  NoSun,                                  !- Sun Exposure
  NoWind,                                 !- Wind Exposure
  ,                                       !- View Factor to Ground
  ,                                       !- Number of Vertices
  4.57, 71.3333390071081, 3.2,            !- X,Y,Z Vertex 1 {m}
  6.81550085106622, 71.3333390071081, 3.2, !- X,Y,Z Vertex 2 {m}
  11.3855008510662, 75.9033390071081, 3.2, !- X,Y,Z Vertex 3 {m}
  0, 75.9033390071081, 3.2;               !- X,Y,Z Vertex 4 {m}

OS:Space,
  {74fbd270-ded5-4ed7-aae0-a4b5667d63da}, !- Handle
  Story 1 East Left Perimeter Space,      !- Name
  ,                                       !- Space Type Name
  ,                                       !- Default Construction Set Name
  ,                                       !- Default Schedule Set Name
  -0,                                     !- Direction of Relative North {deg}
  0,                                      !- X Origin {m}
  0,                                      !- Y Origin {m}
  0,                                      !- Z Origin {m}
  {c6fed687-8c96-4ad4-869e-f8dedfe7b8fa}; !- Building Story Name

OS:Surface,
  {118a5dc2-bd0a-47d5-8a10-8a09fbb0a707}, !- Handle
  Surface 13,                             !- Name
  Floor,                                  !- Surface Type
  ,                                       !- Construction Name
  {74fbd270-ded5-4ed7-aae0-a4b5667d63da}, !- Space Name
  Ground,                                 !- Outside Boundary Condition
  ,                                       !- Outside Boundary Condition Object
  NoSun,                                  !- Sun Exposure
  NoWind,                                 !- Wind Exposure
  ,                                       !- View Factor to Ground
  ,                                       !- Number of Vertices
  11.3855008510662, 75.9033390071081, 0,  !- X,Y,Z Vertex 1 {m}
  11.3855008510662, 53.1323373049757, 0,  !- X,Y,Z Vertex 2 {m}
  6.81550085106622, 48.5623373049757, 0,  !- X,Y,Z Vertex 3 {m}
  6.81550085106622, 71.3333390071081, 0;  !- X,Y,Z Vertex 4 {m}

OS:Surface,
  {9e7c0bed-312d-4211-bcf0-219fe9a9f0a5}, !- Handle
  Surface 14,                             !- Name
  Wall,                                   !- Surface Type
  ,                                       !- Construction Name
  {74fbd270-ded5-4ed7-aae0-a4b5667d63da}, !- Space Name
  Outdoors,                               !- Outside Boundary Condition
  ,                                       !- Outside Boundary Condition Object
  SunExposed,                             !- Sun Exposure
  WindExposed,                            !- Wind Exposure
  ,                                       !- View Factor to Ground
  ,                                       !- Number of Vertices
  11.3855008510662, 53.1323373049757, 3.2, !- X,Y,Z Vertex 1 {m}
  11.3855008510662, 53.1323373049757, 0,  !- X,Y,Z Vertex 2 {m}
  11.3855008510662, 75.9033390071081, 0,  !- X,Y,Z Vertex 3 {m}
  11.3855008510662, 75.9033390071081, 3.2; !- X,Y,Z Vertex 4 {m}

OS:Surface,
  {d934a68d-fd26-4d15-8685-2580b2863d98}, !- Handle
  Surface 15,                             !- Name
  Wall,                                   !- Surface Type
  ,                                       !- Construction Name
  {74fbd270-ded5-4ed7-aae0-a4b5667d63da}, !- Space Name
  Surface,                                !- Outside Boundary Condition
  {7bba6996-90f7-4bcc-905f-47a9d1e32b7c}, !- Outside Boundary Condition Object
  NoSun,                                  !- Sun Exposure
  NoWind,                                 !- Wind Exposure
  ,                                       !- View Factor to Ground
  ,                                       !- Number of Vertices
  6.81550085106622, 48.5623373049757, 3.2, !- X,Y,Z Vertex 1 {m}
  6.81550085106622, 48.5623373049757, 0,  !- X,Y,Z Vertex 2 {m}
  11.3855008510662, 53.1323373049757, 0,  !- X,Y,Z Vertex 3 {m}
  11.3855008510662, 53.1323373049757, 3.2; !- X,Y,Z Vertex 4 {m}

OS:Surface,
  {eb5a4698-d0c6-4ea1-85fe-46dc66fe1f6e}, !- Handle
  Surface 16,                             !- Name
  Wall,                                   !- Surface Type
  ,                                       !- Construction Name
  {74fbd270-ded5-4ed7-aae0-a4b5667d63da}, !- Space Name
  Surface,                                !- Outside Boundary Condition
  {d88d29a5-adfb-4897-8270-4f59982e4379}, !- Outside Boundary Condition Object
  NoSun,                                  !- Sun Exposure
  NoWind,                                 !- Wind Exposure
  ,                                       !- View Factor to Ground
  ,                                       !- Number of Vertices
  6.81550085106622, 71.3333390071081, 3.2, !- X,Y,Z Vertex 1 {m}
  6.81550085106622, 71.3333390071081, 0,  !- X,Y,Z Vertex 2 {m}
  6.81550085106622, 48.5623373049757, 0,  !- X,Y,Z Vertex 3 {m}
  6.81550085106622, 48.5623373049757, 3.2; !- X,Y,Z Vertex 4 {m}

OS:Surface,
  {20dc0440-0f76-4fe7-81ad-b0982799ad13}, !- Handle
  Surface 17,                             !- Name
  Wall,                                   !- Surface Type
  ,                                       !- Construction Name
  {74fbd270-ded5-4ed7-aae0-a4b5667d63da}, !- Space Name
  Surface,                                !- Outside Boundary Condition
  {8439c037-3461-4665-91b0-69a85170921b}, !- Outside Boundary Condition Object
  NoSun,                                  !- Sun Exposure
  NoWind,                                 !- Wind Exposure
  ,                                       !- View Factor to Ground
  ,                                       !- Number of Vertices
  11.3855008510662, 75.9033390071081, 3.2, !- X,Y,Z Vertex 1 {m}
  11.3855008510662, 75.9033390071081, 0,  !- X,Y,Z Vertex 2 {m}
  6.81550085106622, 71.3333390071081, 0,  !- X,Y,Z Vertex 3 {m}
  6.81550085106622, 71.3333390071081, 3.2; !- X,Y,Z Vertex 4 {m}

OS:Surface,
  {9dd06a22-b1b9-4b3a-879b-ec3b5e695445}, !- Handle
  Surface 18,                             !- Name
  RoofCeiling,                            !- Surface Type
  ,                                       !- Construction Name
  {74fbd270-ded5-4ed7-aae0-a4b5667d63da}, !- Space Name
  Surface,                                !- Outside Boundary Condition
  {043f1b1b-330f-40aa-8af7-34330af3a1b4}, !- Outside Boundary Condition Object
  NoSun,                                  !- Sun Exposure
  NoWind,                                 !- Wind Exposure
  ,                                       !- View Factor to Ground
  ,                                       !- Number of Vertices
  6.81550085106622, 71.3333390071081, 3.2, !- X,Y,Z Vertex 1 {m}
  6.81550085106622, 48.5623373049757, 3.2, !- X,Y,Z Vertex 2 {m}
  11.3855008510662, 53.1323373049757, 3.2, !- X,Y,Z Vertex 3 {m}
  11.3855008510662, 75.9033390071081, 3.2; !- X,Y,Z Vertex 4 {m}

OS:Space,
  {399d43e8-1812-41d8-a39f-5d63416c91be}, !- Handle
  Story 1 North Lower Perimeter Space,    !- Name
  ,                                       !- Space Type Name
  ,                                       !- Default Construction Set Name
  ,                                       !- Default Schedule Set Name
  -0,                                     !- Direction of Relative North {deg}
  0,                                      !- X Origin {m}
  0,                                      !- Y Origin {m}
  0,                                      !- Z Origin {m}
  {c6fed687-8c96-4ad4-869e-f8dedfe7b8fa}; !- Building Story Name

OS:Surface,
  {e45536b5-b925-4fcf-9c1b-34510ce88b27}, !- Handle
  Surface 19,                             !- Name
  Floor,                                  !- Surface Type
  ,                                       !- Construction Name
  {399d43e8-1812-41d8-a39f-5d63416c91be}, !- Space Name
  Ground,                                 !- Outside Boundary Condition
  ,                                       !- Outside Boundary Condition Object
  NoSun,                                  !- Sun Exposure
  NoWind,                                 !- Wind Exposure
  ,                                       !- View Factor to Ground
  ,                                       !- Number of Vertices
  11.3855008510662, 53.1323373049757, 0,  !- X,Y,Z Vertex 1 {m}
  75.9033390071081, 53.1323373049757, 0,  !- X,Y,Z Vertex 2 {m}
  80.4733390071081, 48.5623373049757, 0,  !- X,Y,Z Vertex 3 {m}
  6.81550085106622, 48.5623373049757, 0;  !- X,Y,Z Vertex 4 {m}

OS:Surface,
  {98fc5746-faea-4fbe-a3c2-d445d7e61007}, !- Handle
  Surface 20,                             !- Name
  Wall,                                   !- Surface Type
  ,                                       !- Construction Name
  {399d43e8-1812-41d8-a39f-5d63416c91be}, !- Space Name
  Outdoors,                               !- Outside Boundary Condition
  ,                                       !- Outside Boundary Condition Object
  SunExposed,                             !- Sun Exposure
  WindExposed,                            !- Wind Exposure
  ,                                       !- View Factor to Ground
  ,                                       !- Number of Vertices
  75.9033390071081, 53.1323373049757, 3.2, !- X,Y,Z Vertex 1 {m}
  75.9033390071081, 53.1323373049757, 0,  !- X,Y,Z Vertex 2 {m}
  11.3855008510662, 53.1323373049757, 0,  !- X,Y,Z Vertex 3 {m}
  11.3855008510662, 53.1323373049757, 3.2; !- X,Y,Z Vertex 4 {m}

OS:Surface,
  {4d11dfa1-21ae-4891-a5e5-62b71664ccd2}, !- Handle
  Surface 21,                             !- Name
  Wall,                                   !- Surface Type
  ,                                       !- Construction Name
  {399d43e8-1812-41d8-a39f-5d63416c91be}, !- Space Name
  Surface,                                !- Outside Boundary Condition
  {319ce897-8292-4fe1-8f0a-bdd610b6ad88}, !- Outside Boundary Condition Object
  NoSun,                                  !- Sun Exposure
  NoWind,                                 !- Wind Exposure
  ,                                       !- View Factor to Ground
  ,                                       !- Number of Vertices
  80.4733390071081, 48.5623373049757, 3.2, !- X,Y,Z Vertex 1 {m}
  80.4733390071081, 48.5623373049757, 0,  !- X,Y,Z Vertex 2 {m}
  75.9033390071081, 53.1323373049757, 0,  !- X,Y,Z Vertex 3 {m}
  75.9033390071081, 53.1323373049757, 3.2; !- X,Y,Z Vertex 4 {m}

OS:Surface,
  {1872d281-9be2-4594-a0f1-72c58532fc18}, !- Handle
  Surface 22,                             !- Name
  Wall,                                   !- Surface Type
  ,                                       !- Construction Name
  {399d43e8-1812-41d8-a39f-5d63416c91be}, !- Space Name
  Surface,                                !- Outside Boundary Condition
  {8c31c00b-02f3-4252-821f-8b723edd8c9d}, !- Outside Boundary Condition Object
  NoSun,                                  !- Sun Exposure
  NoWind,                                 !- Wind Exposure
  ,                                       !- View Factor to Ground
  ,                                       !- Number of Vertices
  6.81550085106622, 48.5623373049757, 3.2, !- X,Y,Z Vertex 1 {m}
  6.81550085106622, 48.5623373049757, 0,  !- X,Y,Z Vertex 2 {m}
  80.4733390071081, 48.5623373049757, 0,  !- X,Y,Z Vertex 3 {m}
  80.4733390071081, 48.5623373049757, 3.2; !- X,Y,Z Vertex 4 {m}

OS:Surface,
  {7bba6996-90f7-4bcc-905f-47a9d1e32b7c}, !- Handle
  Surface 23,                             !- Name
  Wall,                                   !- Surface Type
  ,                                       !- Construction Name
  {399d43e8-1812-41d8-a39f-5d63416c91be}, !- Space Name
  Surface,                                !- Outside Boundary Condition
  {d934a68d-fd26-4d15-8685-2580b2863d98}, !- Outside Boundary Condition Object
  NoSun,                                  !- Sun Exposure
  NoWind,                                 !- Wind Exposure
  ,                                       !- View Factor to Ground
  ,                                       !- Number of Vertices
  11.3855008510662, 53.1323373049757, 3.2, !- X,Y,Z Vertex 1 {m}
  11.3855008510662, 53.1323373049757, 0,  !- X,Y,Z Vertex 2 {m}
  6.81550085106622, 48.5623373049757, 0,  !- X,Y,Z Vertex 3 {m}
  6.81550085106622, 48.5623373049757, 3.2; !- X,Y,Z Vertex 4 {m}

OS:Surface,
  {dc5cb5a0-9a14-4cdc-9942-50402a7acd1a}, !- Handle
  Surface 24,                             !- Name
  RoofCeiling,                            !- Surface Type
  ,                                       !- Construction Name
  {399d43e8-1812-41d8-a39f-5d63416c91be}, !- Space Name
  Surface,                                !- Outside Boundary Condition
  {c00e6d95-2ff5-4eb1-b917-90867148a111}, !- Outside Boundary Condition Object
  NoSun,                                  !- Sun Exposure
  NoWind,                                 !- Wind Exposure
  ,                                       !- View Factor to Ground
  ,                                       !- Number of Vertices
  6.81550085106622, 48.5623373049757, 3.2, !- X,Y,Z Vertex 1 {m}
  80.4733390071081, 48.5623373049757, 3.2, !- X,Y,Z Vertex 2 {m}
  75.9033390071081, 53.1323373049757, 3.2, !- X,Y,Z Vertex 3 {m}
  11.3855008510662, 53.1323373049757, 3.2; !- X,Y,Z Vertex 4 {m}

OS:Space,
  {4be4fb30-d974-4fc6-ab11-11b182cd5e9d}, !- Handle
  Story 1 West Right Perimeter Space,     !- Name
  ,                                       !- Space Type Name
  ,                                       !- Default Construction Set Name
  ,                                       !- Default Schedule Set Name
  -0,                                     !- Direction of Relative North {deg}
  0,                                      !- X Origin {m}
  0,                                      !- Y Origin {m}
  0,                                      !- Z Origin {m}
  {c6fed687-8c96-4ad4-869e-f8dedfe7b8fa}; !- Building Story Name

OS:Surface,
  {67d11f27-993a-4c14-b376-b15ad7ccdbdb}, !- Handle
  Surface 25,                             !- Name
  Floor,                                  !- Surface Type
  ,                                       !- Construction Name
  {4be4fb30-d974-4fc6-ab11-11b182cd5e9d}, !- Space Name
  Ground,                                 !- Outside Boundary Condition
  ,                                       !- Outside Boundary Condition Object
  NoSun,                                  !- Sun Exposure
  NoWind,                                 !- Wind Exposure
  ,                                       !- View Factor to Ground
  ,                                       !- Number of Vertices
  75.9033390071081, 53.1323373049757, 0,  !- X,Y,Z Vertex 1 {m}
  75.9033390071081, 75.9033390071081, 0,  !- X,Y,Z Vertex 2 {m}
  80.4733390071081, 71.3333390071081, 0,  !- X,Y,Z Vertex 3 {m}
  80.4733390071081, 48.5623373049757, 0;  !- X,Y,Z Vertex 4 {m}

OS:Surface,
  {5cb37083-e09a-455d-9679-d1c3bba8b0aa}, !- Handle
  Surface 26,                             !- Name
  Wall,                                   !- Surface Type
  ,                                       !- Construction Name
  {4be4fb30-d974-4fc6-ab11-11b182cd5e9d}, !- Space Name
  Outdoors,                               !- Outside Boundary Condition
  ,                                       !- Outside Boundary Condition Object
  SunExposed,                             !- Sun Exposure
  WindExposed,                            !- Wind Exposure
  ,                                       !- View Factor to Ground
  ,                                       !- Number of Vertices
  75.9033390071081, 75.9033390071081, 3.2, !- X,Y,Z Vertex 1 {m}
  75.9033390071081, 75.9033390071081, 0,  !- X,Y,Z Vertex 2 {m}
  75.9033390071081, 53.1323373049757, 0,  !- X,Y,Z Vertex 3 {m}
  75.9033390071081, 53.1323373049757, 3.2; !- X,Y,Z Vertex 4 {m}

OS:Surface,
  {85e39322-d0a4-4899-bbeb-d7832d6f631d}, !- Handle
  Surface 27,                             !- Name
  Wall,                                   !- Surface Type
  ,                                       !- Construction Name
  {4be4fb30-d974-4fc6-ab11-11b182cd5e9d}, !- Space Name
  Surface,                                !- Outside Boundary Condition
  {55f3e3f5-df0c-473e-a5e9-be539b944fa4}, !- Outside Boundary Condition Object
  NoSun,                                  !- Sun Exposure
  NoWind,                                 !- Wind Exposure
  ,                                       !- View Factor to Ground
  ,                                       !- Number of Vertices
  80.4733390071081, 71.3333390071081, 3.2, !- X,Y,Z Vertex 1 {m}
  80.4733390071081, 71.3333390071081, 0,  !- X,Y,Z Vertex 2 {m}
  75.9033390071081, 75.9033390071081, 0,  !- X,Y,Z Vertex 3 {m}
  75.9033390071081, 75.9033390071081, 3.2; !- X,Y,Z Vertex 4 {m}

OS:Surface,
  {cee6426e-2e2f-49af-bcc4-45f38e9afa7a}, !- Handle
  Surface 28,                             !- Name
  Wall,                                   !- Surface Type
  ,                                       !- Construction Name
  {4be4fb30-d974-4fc6-ab11-11b182cd5e9d}, !- Space Name
  Surface,                                !- Outside Boundary Condition
  {b8fe7159-79dc-4a58-99d7-9779165b4658}, !- Outside Boundary Condition Object
  NoSun,                                  !- Sun Exposure
  NoWind,                                 !- Wind Exposure