
OS:Version,
  {803d0f7c-26c4-4905-92a4-f02930a7c04c}, !- Handle
  2.4.1;                                  !- Version Identifier

OS:BuildingStory,
  {c5aa69ee-ca45-4a37-b739-4d523d904745}, !- Handle
  Story 0,                                !- Name
  -3.8,                                   !- Nominal Z Coordinate {m}
  3.8,                                    !- Nominal Floor to Floor Height {m}
  ,                                       !- Default Construction Set Name
  ,                                       !- Default Schedule Set Name
  ;                                       !- Group Rendering Name

OS:Space,
  {f44533ee-c10c-47fe-ad09-abfb0cbd6c87}, !- Handle
  Story 0 West Perimeter Space,           !- Name
  ,                                       !- Space Type Name
  ,                                       !- Default Construction Set Name
  ,                                       !- Default Schedule Set Name
  -0,                                     !- Direction of Relative North {deg}
  0,                                      !- X Origin {m}
  0,                                      !- Y Origin {m}
  -3.8,                                   !- Z Origin {m}
  {c5aa69ee-ca45-4a37-b739-4d523d904745}; !- Building Story Name

OS:Surface,
  {84d2a25e-0934-4c97-9851-e677365591c7}, !- Handle
  Surface 1,                              !- Name
  Floor,                                  !- Surface Type
  ,                                       !- Construction Name
  {f44533ee-c10c-47fe-ad09-abfb0cbd6c87}, !- Space Name
  Ground,                                 !- Outside Boundary Condition
  ,                                       !- Outside Boundary Condition Object
  NoSun,                                  !- Sun Exposure
  NoWind,                                 !- Wind Exposure
  ,                                       !- View Factor to Ground
  ,                                       !- Number of Vertices
  0, 0, 0,                                !- X,Y,Z Vertex 1 {m}
  0, 100, 0,                              !- X,Y,Z Vertex 2 {m}
  4.57, 95.43, 0,                         !- X,Y,Z Vertex 3 {m}
  4.57, 4.57, 0;                          !- X,Y,Z Vertex 4 {m}

OS:Surface,
  {9d2c37ad-b98f-47cc-b249-9ea2a9f86476}, !- Handle
  Surface 2,                              !- Name
  Wall,                                   !- Surface Type
  ,                                       !- Construction Name
  {f44533ee-c10c-47fe-ad09-abfb0cbd6c87}, !- Space Name
  Ground,                                 !- Outside Boundary Condition
  ,                                       !- Outside Boundary Condition Object
  NoSun,                                  !- Sun Exposure
  NoWind,                                 !- Wind Exposure
  ,                                       !- View Factor to Ground
  ,                                       !- Number of Vertices
  0, 100, 3.8,                            !- X,Y,Z Vertex 1 {m}
  0, 100, 0,                              !- X,Y,Z Vertex 2 {m}
  0, 0, 0,                                !- X,Y,Z Vertex 3 {m}
  0, 0, 3.8;                              !- X,Y,Z Vertex 4 {m}

OS:Surface,
  {71b3955a-dbf2-4d2a-8a0e-685bad18177e}, !- Handle
  Surface 3,                              !- Name
  Wall,                                   !- Surface Type
  ,                                       !- Construction Name
  {f44533ee-c10c-47fe-ad09-abfb0cbd6c87}, !- Space Name
  Surface,                                !- Outside Boundary Condition
  {52d9693a-62ef-4949-a0f8-74fd6ca0e8c3}, !- Outside Boundary Condition Object
  NoSun,                                  !- Sun Exposure
  NoWind,                                 !- Wind Exposure
  ,                                       !- View Factor to Ground
  ,                                       !- Number of Vertices
  4.57, 95.43, 3.8,                       !- X,Y,Z Vertex 1 {m}
  4.57, 95.43, 0,                         !- X,Y,Z Vertex 2 {m}
  0, 100, 0,                              !- X,Y,Z Vertex 3 {m}
  0, 100, 3.8;                            !- X,Y,Z Vertex 4 {m}

OS:Surface,
  {060759e3-91d9-4918-bc58-b8cca623b6b9}, !- Handle
  Surface 4,                              !- Name
  Wall,                                   !- Surface Type
  ,                                       !- Construction Name
  {f44533ee-c10c-47fe-ad09-abfb0cbd6c87}, !- Space Name
  Surface,                                !- Outside Boundary Condition
  {1aa37727-0ad1-40bd-b8d3-65aeadd114db}, !- Outside Boundary Condition Object
  NoSun,                                  !- Sun Exposure
  NoWind,                                 !- Wind Exposure
  ,                                       !- View Factor to Ground
  ,                                       !- Number of Vertices
  4.57, 4.57, 3.8,                        !- X,Y,Z Vertex 1 {m}
  4.57, 4.57, 0,                          !- X,Y,Z Vertex 2 {m}
  4.57, 95.43, 0,                         !- X,Y,Z Vertex 3 {m}
  4.57, 95.43, 3.8;                       !- X,Y,Z Vertex 4 {m}

OS:Surface,
  {364d8086-810c-4be0-971a-83f34256f19e}, !- Handle
  Surface 5,                              !- Name
  Wall,                                   !- Surface Type
  ,                                       !- Construction Name
  {f44533ee-c10c-47fe-ad09-abfb0cbd6c87}, !- Space Name
  Surface,                                !- Outside Boundary Condition
  {3870d62f-acd8-45d4-bac0-4acdc3c3e9a5}, !- Outside Boundary Condition Object
  NoSun,                                  !- Sun Exposure
  NoWind,                                 !- Wind Exposure
  ,                                       !- View Factor to Ground
  ,                                       !- Number of Vertices
  0, 0, 3.8,                              !- X,Y,Z Vertex 1 {m}
  0, 0, 0,                                !- X,Y,Z Vertex 2 {m}
  4.57, 4.57, 0,                          !- X,Y,Z Vertex 3 {m}
  4.57, 4.57, 3.8;                        !- X,Y,Z Vertex 4 {m}

OS:Surface,
  {31351630-f442-4b5b-ab87-7be538ac926a}, !- Handle
  Surface 6,                              !- Name
  RoofCeiling,                            !- Surface Type
  ,                                       !- Construction Name
  {f44533ee-c10c-47fe-ad09-abfb0cbd6c87}, !- Space Name
  Surface,                                !- Outside Boundary Condition
  {751fc873-ece4-4700-a82f-6b31c89935bd}, !- Outside Boundary Condition Object
  NoSun,                                  !- Sun Exposure
  NoWind,                                 !- Wind Exposure
  ,                                       !- View Factor to Ground
  ,                                       !- Number of Vertices
  4.57, 4.57, 3.8,                        !- X,Y,Z Vertex 1 {m}
  4.57, 95.43, 3.8,                       !- X,Y,Z Vertex 2 {m}
  0, 100, 3.8,                            !- X,Y,Z Vertex 3 {m}
  0, 0, 3.8;                              !- X,Y,Z Vertex 4 {m}

OS:Space,
  {0398f957-d538-42a2-919d-3571fd2f1d57}, !- Handle
  Story 0 North Perimeter Space,          !- Name
  ,                                       !- Space Type Name
  ,                                       !- Default Construction Set Name
  ,                                       !- Default Schedule Set Name
  -0,                                     !- Direction of Relative North {deg}
  4.57,                                   !- X Origin {m}
  95.43,                                  !- Y Origin {m}
  -3.8,                                   !- Z Origin {m}
  {c5aa69ee-ca45-4a37-b739-4d523d904745}; !- Building Story Name

OS:Surface,
  {61f6d277-824c-415b-8e2e-70a326ef2b7f}, !- Handle
  Surface 7,                              !- Name
  Floor,                                  !- Surface Type
  ,                                       !- Construction Name
  {0398f957-d538-42a2-919d-3571fd2f1d57}, !- Space Name
  Ground,                                 !- Outside Boundary Condition
  ,                                       !- Outside Boundary Condition Object
  NoSun,                                  !- Sun Exposure
  NoWind,                                 !- Wind Exposure
  ,                                       !- View Factor to Ground
  ,                                       !- Number of Vertices
  -4.57, 4.56999999999999, 0,             !- X,Y,Z Vertex 1 {m}
  95.43, 4.56999999999999, 0,             !- X,Y,Z Vertex 2 {m}
  90.86, 0, 0,                            !- X,Y,Z Vertex 3 {m}
  0, 0, 0;                                !- X,Y,Z Vertex 4 {m}

OS:Surface,
  {4698ba42-89bb-4f72-9299-7194da26344a}, !- Handle
  Surface 8,                              !- Name
  Wall,                                   !- Surface Type
  ,                                       !- Construction Name
  {0398f957-d538-42a2-919d-3571fd2f1d57}, !- Space Name
  Ground,                                 !- Outside Boundary Condition
  ,                                       !- Outside Boundary Condition Object
  NoSun,                                  !- Sun Exposure
  NoWind,                                 !- Wind Exposure
  ,                                       !- View Factor to Ground
  ,                                       !- Number of Vertices
  95.43, 4.56999999999999, 3.8,           !- X,Y,Z Vertex 1 {m}
  95.43, 4.56999999999999, 0,             !- X,Y,Z Vertex 2 {m}
  -4.57, 4.56999999999999, 0,             !- X,Y,Z Vertex 3 {m}
  -4.57, 4.56999999999999, 3.8;           !- X,Y,Z Vertex 4 {m}

OS:Surface,
  {0ebb0825-518b-45b4-82d8-537a27bb51c6}, !- Handle
  Surface 9,                              !- Name
  Wall,                                   !- Surface Type
  ,                                       !- Construction Name
  {0398f957-d538-42a2-919d-3571fd2f1d57}, !- Space Name
  Surface,                                !- Outside Boundary Condition
  {8448fb31-476e-4507-b2ab-94f235259772}, !- Outside Boundary Condition Object
  NoSun,                                  !- Sun Exposure
  NoWind,                                 !- Wind Exposure
  ,                                       !- View Factor to Ground
  ,                                       !- Number of Vertices
  90.86, 0, 3.8,                          !- X,Y,Z Vertex 1 {m}
  90.86, 0, 0,                            !- X,Y,Z Vertex 2 {m}
  95.43, 4.56999999999999, 0,             !- X,Y,Z Vertex 3 {m}
  95.43, 4.56999999999999, 3.8;           !- X,Y,Z Vertex 4 {m}

OS:Surface,
  {fbc368fb-3185-4881-804d-f49f4f89c2f9}, !- Handle
  Surface 10,                             !- Name
  Wall,                                   !- Surface Type
  ,                                       !- Construction Name
  {0398f957-d538-42a2-919d-3571fd2f1d57}, !- Space Name
  Surface,                                !- Outside Boundary Condition
  {614938df-9630-48f4-8921-efac0b6a01ba}, !- Outside Boundary Condition Object
  NoSun,                                  !- Sun Exposure
  NoWind,                                 !- Wind Exposure
  ,                                       !- View Factor to Ground
  ,                                       !- Number of Vertices
  0, 0, 3.8,                              !- X,Y,Z Vertex 1 {m}
  0, 0, 0,                                !- X,Y,Z Vertex 2 {m}
  90.86, 0, 0,                            !- X,Y,Z Vertex 3 {m}
  90.86, 0, 3.8;                          !- X,Y,Z Vertex 4 {m}

OS:Surface,
  {52d9693a-62ef-4949-a0f8-74fd6ca0e8c3}, !- Handle
  Surface 11,                             !- Name
  Wall,                                   !- Surface Type
  ,                                       !- Construction Name
  {0398f957-d538-42a2-919d-3571fd2f1d57}, !- Space Name
  Surface,                                !- Outside Boundary Condition
  {71b3955a-dbf2-4d2a-8a0e-685bad18177e}, !- Outside Boundary Condition Object
  NoSun,                                  !- Sun Exposure
  NoWind,                                 !- Wind Exposure
  ,                                       !- View Factor to Ground
  ,                                       !- Number of Vertices
  -4.57, 4.56999999999999, 3.8,           !- X,Y,Z Vertex 1 {m}
  -4.57, 4.56999999999999, 0,             !- X,Y,Z Vertex 2 {m}
  0, 0, 0,                                !- X,Y,Z Vertex 3 {m}
  0, 0, 3.8;                              !- X,Y,Z Vertex 4 {m}

OS:Surface,
  {dcafc2b2-6398-4dc7-9a9e-d447e94d0272}, !- Handle
  Surface 12,                             !- Name
  RoofCeiling,                            !- Surface Type
  ,                                       !- Construction Name
  {0398f957-d538-42a2-919d-3571fd2f1d57}, !- Space Name
  Surface,                                !- Outside Boundary Condition
  {713c708e-2065-447e-84e1-99307d16190c}, !- Outside Boundary Condition Object
  NoSun,                                  !- Sun Exposure
  NoWind,                                 !- Wind Exposure
  ,                                       !- View Factor to Ground
  ,                                       !- Number of Vertices
  0, 0, 3.8,                              !- X,Y,Z Vertex 1 {m}
  90.86, 0, 3.8,                          !- X,Y,Z Vertex 2 {m}
  95.43, 4.56999999999999, 3.8,           !- X,Y,Z Vertex 3 {m}
  -4.57, 4.56999999999999, 3.8;           !- X,Y,Z Vertex 4 {m}

OS:Space,
  {8820ccc1-7e37-4898-a1eb-e28e969f1f3b}, !- Handle
  Story 0 East Perimeter Space,           !- Name
  ,                                       !- Space Type Name
  ,                                       !- Default Construction Set Name
  ,                                       !- Default Schedule Set Name
  -0,                                     !- Direction of Relative North {deg}
  95.43,                                  !- X Origin {m}
  4.57,                                   !- Y Origin {m}
  -3.8,                                   !- Z Origin {m}
  {c5aa69ee-ca45-4a37-b739-4d523d904745}; !- Building Story Name

OS:Surface,
  {477e21ea-ec1c-4326-ab09-d81d696bcfae}, !- Handle
  Surface 13,                             !- Name
  Floor,                                  !- Surface Type
  ,                                       !- Construction Name
  {8820ccc1-7e37-4898-a1eb-e28e969f1f3b}, !- Space Name
  Ground,                                 !- Outside Boundary Condition
  ,                                       !- Outside Boundary Condition Object
  NoSun,                                  !- Sun Exposure
  NoWind,                                 !- Wind Exposure
  ,                                       !- View Factor to Ground
  ,                                       !- Number of Vertices
  4.56999999999999, 95.43, 0,             !- X,Y,Z Vertex 1 {m}
  4.56999999999999, -4.57, 0,             !- X,Y,Z Vertex 2 {m}
  0, 0, 0,                                !- X,Y,Z Vertex 3 {m}
  0, 90.86, 0;                            !- X,Y,Z Vertex 4 {m}

OS:Surface,
  {58a444d0-d769-4932-bb6e-97f64cb97533}, !- Handle
  Surface 14,                             !- Name
  Wall,                                   !- Surface Type
  ,                                       !- Construction Name
  {8820ccc1-7e37-4898-a1eb-e28e969f1f3b}, !- Space Name
  Ground,                                 !- Outside Boundary Condition
  ,                                       !- Outside Boundary Condition Object
  NoSun,                                  !- Sun Exposure
  NoWind,                                 !- Wind Exposure
  ,                                       !- View Factor to Ground
  ,                                       !- Number of Vertices
  4.56999999999999, -4.57, 3.8,           !- X,Y,Z Vertex 1 {m}
  4.56999999999999, -4.57, 0,             !- X,Y,Z Vertex 2 {m}
  4.56999999999999, 95.43, 0,             !- X,Y,Z Vertex 3 {m}
  4.56999999999999, 95.43, 3.8;           !- X,Y,Z Vertex 4 {m}

OS:Surface,
  {368a644d-8a22-46ff-8ed1-18ae8820cd7a}, !- Handle
  Surface 15,                             !- Name
  Wall,                                   !- Surface Type
  ,                                       !- Construction Name
  {8820ccc1-7e37-4898-a1eb-e28e969f1f3b}, !- Space Name
  Surface,                                !- Outside Boundary Condition
  {b8d85c9c-99cf-4d6d-8e7d-bc2f4499dbbf}, !- Outside Boundary Condition Object
  NoSun,                                  !- Sun Exposure
  NoWind,                                 !- Wind Exposure
  ,                                       !- View Factor to Ground
  ,                                       !- Number of Vertices
  0, 0, 3.8,                              !- X,Y,Z Vertex 1 {m}
  0, 0, 0,                                !- X,Y,Z Vertex 2 {m}
  4.56999999999999, -4.57, 0,             !- X,Y,Z Vertex 3 {m}
  4.56999999999999, -4.57, 3.8;           !- X,Y,Z Vertex 4 {m}

OS:Surface,
  {0f442796-6070-47fd-a01b-931a83f426e3}, !- Handle
  Surface 16,                             !- Name
  Wall,                                   !- Surface Type
  ,                                       !- Construction Name
  {8820ccc1-7e37-4898-a1eb-e28e969f1f3b}, !- Space Name
  Surface,                                !- Outside Boundary Condition
  {880839a3-2297-4023-8b8f-8b683483cb15}, !- Outside Boundary Condition Object
  NoSun,                                  !- Sun Exposure
  NoWind,                                 !- Wind Exposure
  ,                                       !- View Factor to Ground
  ,                                       !- Number of Vertices
  0, 90.86, 3.8,                          !- X,Y,Z Vertex 1 {m}
  0, 90.86, 0,                            !- X,Y,Z Vertex 2 {m}
  0, 0, 0,                                !- X,Y,Z Vertex 3 {m}
  0, 0, 3.8;                              !- X,Y,Z Vertex 4 {m}

OS:Surface,
  {8448fb31-476e-4507-b2ab-94f235259772}, !- Handle
  Surface 17,                             !- Name
  Wall,                                   !- Surface Type
  ,                                       !- Construction Name
  {8820ccc1-7e37-4898-a1eb-e28e969f1f3b}, !- Space Name
  Surface,                                !- Outside Boundary Condition
  {0ebb0825-518b-45b4-82d8-537a27bb51c6}, !- Outside Boundary Condition Object
  NoSun,                                  !- Sun Exposure
  NoWind,                                 !- Wind Exposure
  ,                                       !- View Factor to Ground
  ,                                       !- Number of Vertices
  4.56999999999999, 95.43, 3.8,           !- X,Y,Z Vertex 1 {m}
  4.56999999999999, 95.43, 0,             !- X,Y,Z Vertex 2 {m}
  0, 90.86, 0,                            !- X,Y,Z Vertex 3 {m}
  0, 90.86, 3.8;                          !- X,Y,Z Vertex 4 {m}

OS:Surface,
  {65962fd6-8083-4c32-bc05-6a30468f119d}, !- Handle
  Surface 18,                             !- Name
  RoofCeiling,                            !- Surface Type
  ,                                       !- Construction Name
  {8820ccc1-7e37-4898-a1eb-e28e969f1f3b}, !- Space Name
  Surface,                                !- Outside Boundary Condition
  {c7db93a2-2cdf-4275-9101-c1f166d9394f}, !- Outside Boundary Condition Object
  NoSun,                                  !- Sun Exposure
  NoWind,                                 !- Wind Exposure
  ,                                       !- View Factor to Ground
  ,                                       !- Number of Vertices
  0, 90.86, 3.8,                          !- X,Y,Z Vertex 1 {m}
  0, 0, 3.8,                              !- X,Y,Z Vertex 2 {m}
  4.56999999999999, -4.57, 3.8,           !- X,Y,Z Vertex 3 {m}
  4.56999999999999, 95.43, 3.8;           !- X,Y,Z Vertex 4 {m}

OS:Space,
  {693e8572-cf22-4656-864b-3c396287bcf9}, !- Handle
  Story 0 South Perimeter Space,          !- Name
  ,                                       !- Space Type Name
  ,                                       !- Default Construction Set Name
  ,                                       !- Default Schedule Set Name
  -0,                                     !- Direction of Relative North {deg}
  0,                                      !- X Origin {m}
  0,                                      !- Y Origin {m}
  -3.8,                                   !- Z Origin {m}
  {c5aa69ee-ca45-4a37-b739-4d523d904745}; !- Building Story Name

OS:Surface,
  {9ee0ee2b-e597-40d0-b778-d216630d962e}, !- Handle
  Surface 19,                             !- Name
  Floor,                                  !- Surface Type
  ,                                       !- Construction Name
  {693e8572-cf22-4656-864b-3c396287bcf9}, !- Space Name
  Ground,                                 !- Outside Boundary Condition
  ,                                       !- Outside Boundary Condition Object
  NoSun,                                  !- Sun Exposure
  NoWind,                                 !- Wind Exposure
  ,                                       !- View Factor to Ground
  ,                                       !- Number of Vertices
  100, 0, 0,                              !- X,Y,Z Vertex 1 {m}
  0, 0, 0,                                !- X,Y,Z Vertex 2 {m}
  4.57, 4.57, 0,                          !- X,Y,Z Vertex 3 {m}
  95.43, 4.57, 0;                         !- X,Y,Z Vertex 4 {m}

OS:Surface,
  {83622fb4-9616-4cc9-ba20-e90801fe3f9a}, !- Handle
  Surface 20,                             !- Name
  Wall,                                   !- Surface Type
  ,                                       !- Construction Name
  {693e8572-cf22-4656-864b-3c396287bcf9}, !- Space Name
  Ground,                                 !- Outside Boundary Condition
  ,                                       !- Outside Boundary Condition Object
  NoSun,                                  !- Sun Exposure
  NoWind,                                 !- Wind Exposure
  ,                                       !- View Factor to Ground
  ,                                       !- Number of Vertices
  0, 0, 3.8,                              !- X,Y,Z Vertex 1 {m}
  0, 0, 0,                                !- X,Y,Z Vertex 2 {m}
  100, 0, 0,                              !- X,Y,Z Vertex 3 {m}
  100, 0, 3.8;                            !- X,Y,Z Vertex 4 {m}

OS:Surface,
  {3870d62f-acd8-45d4-bac0-4acdc3c3e9a5}, !- Handle
  Surface 21,                             !- Name
  Wall,                                   !- Surface Type
  ,                                       !- Construction Name
  {693e8572-cf22-4656-864b-3c396287bcf9}, !- Space Name
  Surface,                                !- Outside Boundary Condition
  {364d8086-810c-4be0-971a-83f34256f19e}, !- Outside Boundary Condition Object
  NoSun,                                  !- Sun Exposure
  NoWind,                                 !- Wind Exposure
  ,                                       !- View Factor to Ground
  ,                                       !- Number of Vertices
  4.57, 4.57, 3.8,                        !- X,Y,Z Vertex 1 {m}
  4.57, 4.57, 0,                          !- X,Y,Z Vertex 2 {m}
  0, 0, 0,                                !- X,Y,Z Vertex 3 {m}
  0, 0, 3.8;                              !- X,Y,Z Vertex 4 {m}

OS:Surface,
  {bf83452e-8ab6-4e5a-99f5-539a48d96e14}, !- Handle
  Surface 22,                             !- Name
  Wall,                                   !- Surface Type
  ,                                       !- Construction Name
  {693e8572-cf22-4656-864b-3c396287bcf9}, !- Space Name
  Surface,                                !- Outside Boundary Condition
  {f284f5b4-0b26-4a1b-a1d9-af2b54912da0}, !- Outside Boundary Condition Object
  NoSun,                                  !- Sun Exposure
  NoWind,                                 !- Wind Exposure
  ,                                       !- View Factor to Ground
  ,                                       !- Number of Vertices
  95.43, 4.57, 3.8,                       !- X,Y,Z Vertex 1 {m}
  95.43, 4.57, 0,                         !- X,Y,Z Vertex 2 {m}
  4.57, 4.57, 0,                          !- X,Y,Z Vertex 3 {m}
  4.57, 4.57, 3.8;                        !- X,Y,Z Vertex 4 {m}

OS:Surface,
  {b8d85c9c-99cf-4d6d-8e7d-bc2f4499dbbf}, !- Handle
  Surface 23,                             !- Name
  Wall,                                   !- Surface Type
  ,                                       !- Construction Name
  {693e8572-cf22-4656-864b-3c396287bcf9}, !- Space Name
  Surface,                                !- Outside Boundary Condition
  {368a644d-8a22-46ff-8ed1-18ae8820cd7a}, !- Outside Boundary Condition Object
  NoSun,                                  !- Sun Exposure
  NoWind,                                 !- Wind Exposure
  ,                                       !- View Factor to Ground
  ,                                       !- Number of Vertices
  100, 0, 3.8,                            !- X,Y,Z Vertex 1 {m}
  100, 0, 0,                              !- X,Y,Z Vertex 2 {m}
  95.43, 4.57, 0,                         !- X,Y,Z Vertex 3 {m}
  95.43, 4.57, 3.8;                       !- X,Y,Z Vertex 4 {m}

OS:Surface,
  {99490048-0d76-4231-b2d2-4b0e1e40922d}, !- Handle
  Surface 24,                             !- Name
  RoofCeiling,                            !- Surface Type
  ,                                       !- Construction Name
  {693e8572-cf22-4656-864b-3c396287bcf9}, !- Space Name
  Surface,                                !- Outside Boundary Condition
  {e75c8233-bc98-49f1-9cff-c6f153ddd88d}, !- Outside Boundary Condition Object
  NoSun,                                  !- Sun Exposure
  NoWind,                                 !- Wind Exposure
  ,                                       !- View Factor to Ground
  ,                                       !- Number of Vertices
  95.43, 4.57, 3.8,                       !- X,Y,Z Vertex 1 {m}
  4.57, 4.57, 3.8,                        !- X,Y,Z Vertex 2 {m}
  0, 0, 3.8,                              !- X,Y,Z Vertex 3 {m}
  100, 0, 3.8;                            !- X,Y,Z Vertex 4 {m}

OS:Space,
  {427e4e8d-4c69-480c-9f47-01790cba1d64}, !- Handle
  Story 0 Core Space,                     !- Name
  ,                                       !- Space Type Name
  ,                                       !- Default Construction Set Name
  ,                                       !- Default Schedule Set Name
  -0,                                     !- Direction of Relative North {deg}
  4.57,                                   !- X Origin {m}
  4.57,                                   !- Y Origin {m}
  -3.8,                                   !- Z Origin {m}
  {c5aa69ee-ca45-4a37-b739-4d523d904745}; !- Building Story Name

OS:Surface,
  {62fc4796-bf92-4c04-badb-e4445f010078}, !- Handle
  Surface 25,                             !- Name
  Floor,                                  !- Surface Type
  ,                                       !- Construction Name
  {427e4e8d-4c69-480c-9f47-01790cba1d64}, !- Space Name
  Ground,                                 !- Outside Boundary Condition
  ,                                       !- Outside Boundary Condition Object
  NoSun,                                  !- Sun Exposure
  NoWind,                                 !- Wind Exposure
  ,                                       !- View Factor to Ground
  ,                                       !- Number of Vertices
  0, 0, 0,                                !- X,Y,Z Vertex 1 {m}
  0, 90.86, 0,                            !- X,Y,Z Vertex 2 {m}
  90.86, 90.86, 0,                        !- X,Y,Z Vertex 3 {m}
  90.86, 0, 0;                            !- X,Y,Z Vertex 4 {m}

OS:Surface,
  {1aa37727-0ad1-40bd-b8d3-65aeadd114db}, !- Handle
  Surface 26,                             !- Name
  Wall,                                   !- Surface Type
  ,                                       !- Construction Name
  {427e4e8d-4c69-480c-9f47-01790cba1d64}, !- Space Name
  Surface,                                !- Outside Boundary Condition
  {060759e3-91d9-4918-bc58-b8cca623b6b9}, !- Outside Boundary Condition Object
  NoSun,                                  !- Sun Exposure
  NoWind,                                 !- Wind Exposure
  ,                                       !- View Factor to Ground
  ,                                       !- Number of Vertices
  0, 90.86, 3.8,                          !- X,Y,Z Vertex 1 {m}
  0, 90.86, 0,                            !- X,Y,Z Vertex 2 {m}
  0, 0, 0,                                !- X,Y,Z Vertex 3 {m}
  0, 0, 3.8;                              !- X,Y,Z Vertex 4 {m}

OS:Surface,
  {614938df-9630-48f4-8921-efac0b6a01ba}, !- Handle
  Surface 27,                             !- Name
  Wall,                                   !- Surface Type
  ,                                       !- Construction Name
  {427e4e8d-4c69-480c-9f47-01790cba1d64}, !- Space Name
  Surface,                                !- Outside Boundary Condition
  {fbc368fb-3185-4881-804d-f49f4f89c2f9}, !- Outside Boundary Condition Object
  NoSun,                                  !- Sun Exposure
  NoWind,                                 !- Wind Exposure
  ,                                       !- View Factor to Ground
  ,                                       !- Number of Vertices
  90.86, 90.86, 3.8,                      !- X,Y,Z Vertex 1 {m}
  90.86, 90.86, 0,                        !- X,Y,Z Vertex 2 {m}
  0, 90.86, 0,                            !- X,Y,Z Vertex 3 {m}
  0, 90.86, 3.8;                          !- X,Y,Z Vertex 4 {m}

OS:Surface,
  {880839a3-2297-4023-8b8f-8b683483cb15}, !- Handle
  Surface 28,                             !- Name
  Wall,                                   !- Surface Type
  ,                                       !- Construction Name
  {427e4e8d-4c69-480c-9f47-01790cba1d64}, !- Space Name
  Surface,                                !- Outside Boundary Condition
  {0f442796-6070-47fd-a01b-931a83f426e3}, !- Outside Boundary Condition Object
  NoSun,                                  !- Sun Exposure
  NoWind,                                 !- Wind Exposure
  ,                                       !- View Factor to Ground