
OS:Version,
  {9bb3f9db-15df-45ee-a440-1e4f04e1e10c}, !- Handle
  2.4.1;                                  !- Version Identifier

OS:BuildingStory,
  {f09e218a-f9cf-4674-af53-7f669dde1bbb}, !- Handle
  Story 0,                                !- Name
  -3.8,                                   !- Nominal Z Coordinate {m}
  3.8,                                    !- Nominal Floor to Floor Height {m}
  ,                                       !- Default Construction Set Name
  ,                                       !- Default Schedule Set Name
  ;                                       !- Group Rendering Name

OS:Space,
  {ca45dadd-d94d-4a3a-8131-7943174e2a5c}, !- Handle
  Story 0 West Perimeter Space,           !- Name
  ,                                       !- Space Type Name
  ,                                       !- Default Construction Set Name
  ,                                       !- Default Schedule Set Name
  -0,                                     !- Direction of Relative North {deg}
  0,                                      !- X Origin {m}
  0,                                      !- Y Origin {m}
  -3.8,                                   !- Z Origin {m}
  {f09e218a-f9cf-4674-af53-7f669dde1bbb}; !- Building Story Name

OS:Surface,
  {9d0cb2be-8686-4a29-b95a-34f7ad638d8f}, !- Handle
  Surface 1,                              !- Name
  Floor,                                  !- Surface Type
  ,                                       !- Construction Name
  {ca45dadd-d94d-4a3a-8131-7943174e2a5c}, !- Space Name
  Ground,                                 !- Outside Boundary Condition
  ,                                       !- Outside Boundary Condition Object
  NoSun,                                  !- Sun Exposure
  NoWind,                                 !- Wind Exposure
  ,                                       !- View Factor to Ground
  ,                                       !- Number of Vertices
  0, 0, 0,                                !- X,Y,Z Vertex 1 {m}
  0, 100, 0,                              !- X,Y,Z Vertex 2 {m}
  4.57, 95.43, 0,                         !- X,Y,Z Vertex 3 {m}
  4.57, 4.57, 0;                          !- X,Y,Z Vertex 4 {m}

OS:Surface,
  {e20bc9ae-970d-4a9a-9fa3-2463e1940177}, !- Handle
  Surface 2,                              !- Name
  Wall,                                   !- Surface Type
  ,                                       !- Construction Name
  {ca45dadd-d94d-4a3a-8131-7943174e2a5c}, !- Space Name
  Ground,                                 !- Outside Boundary Condition
  ,                                       !- Outside Boundary Condition Object
  NoSun,                                  !- Sun Exposure
  NoWind,                                 !- Wind Exposure
  ,                                       !- View Factor to Ground
  ,                                       !- Number of Vertices
  0, 100, 3.8,                            !- X,Y,Z Vertex 1 {m}
  0, 100, 0,                              !- X,Y,Z Vertex 2 {m}
  0, 0, 0,                                !- X,Y,Z Vertex 3 {m}
  0, 0, 3.8;                              !- X,Y,Z Vertex 4 {m}

OS:Surface,
  {2164f621-0a10-4b67-9332-861c38c5ca5e}, !- Handle
  Surface 3,                              !- Name
  Wall,                                   !- Surface Type
  ,                                       !- Construction Name
  {ca45dadd-d94d-4a3a-8131-7943174e2a5c}, !- Space Name
  Surface,                                !- Outside Boundary Condition
  {c78b473c-12b4-4994-8917-d548e54717cd}, !- Outside Boundary Condition Object
  NoSun,                                  !- Sun Exposure
  NoWind,                                 !- Wind Exposure
  ,                                       !- View Factor to Ground
  ,                                       !- Number of Vertices
  4.57, 95.43, 3.8,                       !- X,Y,Z Vertex 1 {m}
  4.57, 95.43, 0,                         !- X,Y,Z Vertex 2 {m}
  0, 100, 0,                              !- X,Y,Z Vertex 3 {m}
  0, 100, 3.8;                            !- X,Y,Z Vertex 4 {m}

OS:Surface,
  {e42c7272-dcd7-4c3e-91ed-8230958aed37}, !- Handle
  Surface 4,                              !- Name
  Wall,                                   !- Surface Type
  ,                                       !- Construction Name
  {ca45dadd-d94d-4a3a-8131-7943174e2a5c}, !- Space Name
  Surface,                                !- Outside Boundary Condition
  {cc4f0c71-4853-4bf0-bf43-d07a26f0c2d9}, !- Outside Boundary Condition Object
  NoSun,                                  !- Sun Exposure
  NoWind,                                 !- Wind Exposure
  ,                                       !- View Factor to Ground
  ,                                       !- Number of Vertices
  4.57, 4.57, 3.8,                        !- X,Y,Z Vertex 1 {m}
  4.57, 4.57, 0,                          !- X,Y,Z Vertex 2 {m}
  4.57, 95.43, 0,                         !- X,Y,Z Vertex 3 {m}
  4.57, 95.43, 3.8;                       !- X,Y,Z Vertex 4 {m}

OS:Surface,
  {279b1dd6-1785-4d8f-9c23-6fef8fd4fe65}, !- Handle
  Surface 5,                              !- Name
  Wall,                                   !- Surface Type
  ,                                       !- Construction Name
  {ca45dadd-d94d-4a3a-8131-7943174e2a5c}, !- Space Name
  Surface,                                !- Outside Boundary Condition
  {fafd7918-c5d1-4335-a766-7fff189898ad}, !- Outside Boundary Condition Object
  NoSun,                                  !- Sun Exposure
  NoWind,                                 !- Wind Exposure
  ,                                       !- View Factor to Ground
  ,                                       !- Number of Vertices
  0, 0, 3.8,                              !- X,Y,Z Vertex 1 {m}
  0, 0, 0,                                !- X,Y,Z Vertex 2 {m}
  4.57, 4.57, 0,                          !- X,Y,Z Vertex 3 {m}
  4.57, 4.57, 3.8;                        !- X,Y,Z Vertex 4 {m}

OS:Surface,
  {7f62a9d1-9a79-44ad-b11b-ef602467e921}, !- Handle
  Surface 6,                              !- Name
  RoofCeiling,                            !- Surface Type
  ,                                       !- Construction Name
  {ca45dadd-d94d-4a3a-8131-7943174e2a5c}, !- Space Name
  Surface,                                !- Outside Boundary Condition
  {52c78599-e6d3-47d1-b8ab-3d8a286c92db}, !- Outside Boundary Condition Object
  NoSun,                                  !- Sun Exposure
  NoWind,                                 !- Wind Exposure
  ,                                       !- View Factor to Ground
  ,                                       !- Number of Vertices
  4.57, 4.57, 3.8,                        !- X,Y,Z Vertex 1 {m}
  4.57, 95.43, 3.8,                       !- X,Y,Z Vertex 2 {m}
  0, 100, 3.8,                            !- X,Y,Z Vertex 3 {m}
  0, 0, 3.8;                              !- X,Y,Z Vertex 4 {m}

OS:Space,
  {7f93c0c5-c68a-4635-a810-928c3173f19b}, !- Handle
  Story 0 North Perimeter Space,          !- Name
  ,                                       !- Space Type Name
  ,                                       !- Default Construction Set Name
  ,                                       !- Default Schedule Set Name
  -0,                                     !- Direction of Relative North {deg}
  4.57,                                   !- X Origin {m}
  95.43,                                  !- Y Origin {m}
  -3.8,                                   !- Z Origin {m}
  {f09e218a-f9cf-4674-af53-7f669dde1bbb}; !- Building Story Name

OS:Surface,
  {019be986-91e4-4e3b-9682-839829f786a9}, !- Handle
  Surface 7,                              !- Name
  Floor,                                  !- Surface Type
  ,                                       !- Construction Name
  {7f93c0c5-c68a-4635-a810-928c3173f19b}, !- Space Name
  Ground,                                 !- Outside Boundary Condition
  ,                                       !- Outside Boundary Condition Object
  NoSun,                                  !- Sun Exposure
  NoWind,                                 !- Wind Exposure
  ,                                       !- View Factor to Ground
  ,                                       !- Number of Vertices
  -4.57, 4.56999999999999, 0,             !- X,Y,Z Vertex 1 {m}
  95.43, 4.56999999999999, 0,             !- X,Y,Z Vertex 2 {m}
  90.86, 0, 0,                            !- X,Y,Z Vertex 3 {m}
  0, 0, 0;                                !- X,Y,Z Vertex 4 {m}

OS:Surface,
  {faf89993-d8a5-4fa9-b60c-50f73e2f0af3}, !- Handle
  Surface 8,                              !- Name
  Wall,                                   !- Surface Type
  ,                                       !- Construction Name
  {7f93c0c5-c68a-4635-a810-928c3173f19b}, !- Space Name
  Ground,                                 !- Outside Boundary Condition
  ,                                       !- Outside Boundary Condition Object
  NoSun,                                  !- Sun Exposure
  NoWind,                                 !- Wind Exposure
  ,                                       !- View Factor to Ground
  ,                                       !- Number of Vertices
  95.43, 4.56999999999999, 3.8,           !- X,Y,Z Vertex 1 {m}
  95.43, 4.56999999999999, 0,             !- X,Y,Z Vertex 2 {m}
  -4.57, 4.56999999999999, 0,             !- X,Y,Z Vertex 3 {m}
  -4.57, 4.56999999999999, 3.8;           !- X,Y,Z Vertex 4 {m}

OS:Surface,
  {d2a1ad34-7bec-4813-b318-3e62be4794e3}, !- Handle
  Surface 9,                              !- Name
  Wall,                                   !- Surface Type
  ,                                       !- Construction Name
  {7f93c0c5-c68a-4635-a810-928c3173f19b}, !- Space Name
  Surface,                                !- Outside Boundary Condition
  {e335eb35-fd53-4084-89bb-cf5ce60b7d53}, !- Outside Boundary Condition Object
  NoSun,                                  !- Sun Exposure
  NoWind,                                 !- Wind Exposure
  ,                                       !- View Factor to Ground
  ,                                       !- Number of Vertices
  90.86, 0, 3.8,                          !- X,Y,Z Vertex 1 {m}
  90.86, 0, 0,                            !- X,Y,Z Vertex 2 {m}
  95.43, 4.56999999999999, 0,             !- X,Y,Z Vertex 3 {m}
  95.43, 4.56999999999999, 3.8;           !- X,Y,Z Vertex 4 {m}

OS:Surface,
  {3ae690db-d5f6-46cd-9897-2ccd4bbd2f54}, !- Handle
  Surface 10,                             !- Name
  Wall,                                   !- Surface Type
  ,                                       !- Construction Name
  {7f93c0c5-c68a-4635-a810-928c3173f19b}, !- Space Name
  Surface,                                !- Outside Boundary Condition
  {ef57d84a-d5cb-46c3-9063-c15693850e73}, !- Outside Boundary Condition Object
  NoSun,                                  !- Sun Exposure
  NoWind,                                 !- Wind Exposure
  ,                                       !- View Factor to Ground
  ,                                       !- Number of Vertices
  0, 0, 3.8,                              !- X,Y,Z Vertex 1 {m}
  0, 0, 0,                                !- X,Y,Z Vertex 2 {m}
  90.86, 0, 0,                            !- X,Y,Z Vertex 3 {m}
  90.86, 0, 3.8;                          !- X,Y,Z Vertex 4 {m}

OS:Surface,
  {c78b473c-12b4-4994-8917-d548e54717cd}, !- Handle
  Surface 11,                             !- Name
  Wall,                                   !- Surface Type
  ,                                       !- Construction Name
  {7f93c0c5-c68a-4635-a810-928c3173f19b}, !- Space Name
  Surface,                                !- Outside Boundary Condition
  {2164f621-0a10-4b67-9332-861c38c5ca5e}, !- Outside Boundary Condition Object
  NoSun,                                  !- Sun Exposure
  NoWind,                                 !- Wind Exposure
  ,                                       !- View Factor to Ground
  ,                                       !- Number of Vertices
  -4.57, 4.56999999999999, 3.8,           !- X,Y,Z Vertex 1 {m}
  -4.57, 4.56999999999999, 0,             !- X,Y,Z Vertex 2 {m}
  0, 0, 0,                                !- X,Y,Z Vertex 3 {m}
  0, 0, 3.8;                              !- X,Y,Z Vertex 4 {m}

OS:Surface,
  {426009b3-1c65-49a6-89c1-ee95a45dd55d}, !- Handle
  Surface 12,                             !- Name
  RoofCeiling,                            !- Surface Type
  ,                                       !- Construction Name
  {7f93c0c5-c68a-4635-a810-928c3173f19b}, !- Space Name
  Surface,                                !- Outside Boundary Condition
  {ea30e81d-3f6a-441a-8081-ebcbd080b42d}, !- Outside Boundary Condition Object
  NoSun,                                  !- Sun Exposure
  NoWind,                                 !- Wind Exposure
  ,                                       !- View Factor to Ground
  ,                                       !- Number of Vertices
  0, 0, 3.8,                              !- X,Y,Z Vertex 1 {m}
  90.86, 0, 3.8,                          !- X,Y,Z Vertex 2 {m}
  95.43, 4.56999999999999, 3.8,           !- X,Y,Z Vertex 3 {m}
  -4.57, 4.56999999999999, 3.8;           !- X,Y,Z Vertex 4 {m}

OS:Space,
  {fddd526c-9770-4ce0-95e0-4464f09570fa}, !- Handle
  Story 0 East Perimeter Space,           !- Name
  ,                                       !- Space Type Name
  ,                                       !- Default Construction Set Name
  ,                                       !- Default Schedule Set Name
  -0,                                     !- Direction of Relative North {deg}
  95.43,                                  !- X Origin {m}
  4.57,                                   !- Y Origin {m}
  -3.8,                                   !- Z Origin {m}
  {f09e218a-f9cf-4674-af53-7f669dde1bbb}; !- Building Story Name

OS:Surface,
  {bd51d58b-a008-43c1-bd5a-c013f60dff1a}, !- Handle
  Surface 13,                             !- Name
  Floor,                                  !- Surface Type
  ,                                       !- Construction Name
  {fddd526c-9770-4ce0-95e0-4464f09570fa}, !- Space Name
  Ground,                                 !- Outside Boundary Condition
  ,                                       !- Outside Boundary Condition Object
  NoSun,                                  !- Sun Exposure
  NoWind,                                 !- Wind Exposure
  ,                                       !- View Factor to Ground
  ,                                       !- Number of Vertices
  4.56999999999999, 95.43, 0,             !- X,Y,Z Vertex 1 {m}
  4.56999999999999, -4.57, 0,             !- X,Y,Z Vertex 2 {m}
  0, 0, 0,                                !- X,Y,Z Vertex 3 {m}
  0, 90.86, 0;                            !- X,Y,Z Vertex 4 {m}

OS:Surface,
  {c3e4c3ea-5981-4723-98af-a4f5f5af1182}, !- Handle
  Surface 14,                             !- Name
  Wall,                                   !- Surface Type
  ,                                       !- Construction Name
  {fddd526c-9770-4ce0-95e0-4464f09570fa}, !- Space Name
  Ground,                                 !- Outside Boundary Condition
  ,                                       !- Outside Boundary Condition Object
  NoSun,                                  !- Sun Exposure
  NoWind,                                 !- Wind Exposure
  ,                                       !- View Factor to Ground
  ,                                       !- Number of Vertices
  4.56999999999999, -4.57, 3.8,           !- X,Y,Z Vertex 1 {m}
  4.56999999999999, -4.57, 0,             !- X,Y,Z Vertex 2 {m}
  4.56999999999999, 95.43, 0,             !- X,Y,Z Vertex 3 {m}
  4.56999999999999, 95.43, 3.8;           !- X,Y,Z Vertex 4 {m}

OS:Surface,
  {d6451f92-c138-4ca3-a5d5-3eebf9b7773b}, !- Handle
  Surface 15,                             !- Name
  Wall,                                   !- Surface Type
  ,                                       !- Construction Name
  {fddd526c-9770-4ce0-95e0-4464f09570fa}, !- Space Name
  Surface,                                !- Outside Boundary Condition
  {018c15ed-e3db-4d96-b667-16b7f7978c5d}, !- Outside Boundary Condition Object
  NoSun,                                  !- Sun Exposure
  NoWind,                                 !- Wind Exposure
  ,                                       !- View Factor to Ground
  ,                                       !- Number of Vertices
  0, 0, 3.8,                              !- X,Y,Z Vertex 1 {m}
  0, 0, 0,                                !- X,Y,Z Vertex 2 {m}
  4.56999999999999, -4.57, 0,             !- X,Y,Z Vertex 3 {m}
  4.56999999999999, -4.57, 3.8;           !- X,Y,Z Vertex 4 {m}

OS:Surface,
  {ca4edde4-25f5-4867-92b4-968a27a243b3}, !- Handle
  Surface 16,                             !- Name
  Wall,                                   !- Surface Type
  ,                                       !- Construction Name
  {fddd526c-9770-4ce0-95e0-4464f09570fa}, !- Space Name
  Surface,                                !- Outside Boundary Condition
  {168628a0-6731-4319-ad9f-271129dfc0e4}, !- Outside Boundary Condition Object
  NoSun,                                  !- Sun Exposure
  NoWind,                                 !- Wind Exposure
  ,                                       !- View Factor to Ground
  ,                                       !- Number of Vertices
  0, 90.86, 3.8,                          !- X,Y,Z Vertex 1 {m}
  0, 90.86, 0,                            !- X,Y,Z Vertex 2 {m}
  0, 0, 0,                                !- X,Y,Z Vertex 3 {m}
  0, 0, 3.8;                              !- X,Y,Z Vertex 4 {m}

OS:Surface,
  {e335eb35-fd53-4084-89bb-cf5ce60b7d53}, !- Handle
  Surface 17,                             !- Name
  Wall,                                   !- Surface Type
  ,                                       !- Construction Name
  {fddd526c-9770-4ce0-95e0-4464f09570fa}, !- Space Name
  Surface,                                !- Outside Boundary Condition
  {d2a1ad34-7bec-4813-b318-3e62be4794e3}, !- Outside Boundary Condition Object
  NoSun,                                  !- Sun Exposure
  NoWind,                                 !- Wind Exposure
  ,                                       !- View Factor to Ground
  ,                                       !- Number of Vertices
  4.56999999999999, 95.43, 3.8,           !- X,Y,Z Vertex 1 {m}
  4.56999999999999, 95.43, 0,             !- X,Y,Z Vertex 2 {m}
  0, 90.86, 0,                            !- X,Y,Z Vertex 3 {m}
  0, 90.86, 3.8;                          !- X,Y,Z Vertex 4 {m}

OS:Surface,
  {236a3d9c-2e8b-4302-8d88-3f7ed2976978}, !- Handle
  Surface 18,                             !- Name
  RoofCeiling,                            !- Surface Type
  ,                                       !- Construction Name
  {fddd526c-9770-4ce0-95e0-4464f09570fa}, !- Space Name
  Surface,                                !- Outside Boundary Condition
  {f989e1fe-0702-4ed6-8b35-b278e7b8eb69}, !- Outside Boundary Condition Object
  NoSun,                                  !- Sun Exposure
  NoWind,                                 !- Wind Exposure
  ,                                       !- View Factor to Ground
  ,                                       !- Number of Vertices
  0, 90.86, 3.8,                          !- X,Y,Z Vertex 1 {m}
  0, 0, 3.8,                              !- X,Y,Z Vertex 2 {m}
  4.56999999999999, -4.57, 3.8,           !- X,Y,Z Vertex 3 {m}
  4.56999999999999, 95.43, 3.8;           !- X,Y,Z Vertex 4 {m}

OS:Space,
  {f4a143ef-e4e8-4308-bca4-22a893d98786}, !- Handle
  Story 0 South Perimeter Space,          !- Name
  ,                                       !- Space Type Name
  ,                                       !- Default Construction Set Name
  ,                                       !- Default Schedule Set Name
  -0,                                     !- Direction of Relative North {deg}
  0,                                      !- X Origin {m}
  0,                                      !- Y Origin {m}
  -3.8,                                   !- Z Origin {m}
  {f09e218a-f9cf-4674-af53-7f669dde1bbb}; !- Building Story Name

OS:Surface,
  {9d748824-ee0d-438a-8784-6091b465136e}, !- Handle
  Surface 19,                             !- Name
  Floor,                                  !- Surface Type
  ,                                       !- Construction Name
  {f4a143ef-e4e8-4308-bca4-22a893d98786}, !- Space Name
  Ground,                                 !- Outside Boundary Condition
  ,                                       !- Outside Boundary Condition Object
  NoSun,                                  !- Sun Exposure
  NoWind,                                 !- Wind Exposure
  ,                                       !- View Factor to Ground
  ,                                       !- Number of Vertices
  100, 0, 0,                              !- X,Y,Z Vertex 1 {m}
  0, 0, 0,                                !- X,Y,Z Vertex 2 {m}
  4.57, 4.57, 0,                          !- X,Y,Z Vertex 3 {m}
  95.43, 4.57, 0;                         !- X,Y,Z Vertex 4 {m}

OS:Surface,
  {14888c35-f76f-489e-aef9-5a70f69ba6a0}, !- Handle
  Surface 20,                             !- Name
  Wall,                                   !- Surface Type
  ,                                       !- Construction Name
  {f4a143ef-e4e8-4308-bca4-22a893d98786}, !- Space Name
  Ground,                                 !- Outside Boundary Condition
  ,                                       !- Outside Boundary Condition Object
  NoSun,                                  !- Sun Exposure
  NoWind,                                 !- Wind Exposure
  ,                                       !- View Factor to Ground
  ,                                       !- Number of Vertices
  0, 0, 3.8,                              !- X,Y,Z Vertex 1 {m}
  0, 0, 0,                                !- X,Y,Z Vertex 2 {m}
  100, 0, 0,                              !- X,Y,Z Vertex 3 {m}
  100, 0, 3.8;                            !- X,Y,Z Vertex 4 {m}

OS:Surface,
  {fafd7918-c5d1-4335-a766-7fff189898ad}, !- Handle
  Surface 21,                             !- Name
  Wall,                                   !- Surface Type
  ,                                       !- Construction Name
  {f4a143ef-e4e8-4308-bca4-22a893d98786}, !- Space Name
  Surface,                                !- Outside Boundary Condition
  {279b1dd6-1785-4d8f-9c23-6fef8fd4fe65}, !- Outside Boundary Condition Object
  NoSun,                                  !- Sun Exposure
  NoWind,                                 !- Wind Exposure
  ,                                       !- View Factor to Ground
  ,                                       !- Number of Vertices
  4.57, 4.57, 3.8,                        !- X,Y,Z Vertex 1 {m}
  4.57, 4.57, 0,                          !- X,Y,Z Vertex 2 {m}
  0, 0, 0,                                !- X,Y,Z Vertex 3 {m}
  0, 0, 3.8;                              !- X,Y,Z Vertex 4 {m}

OS:Surface,
  {03ff7bdb-3120-405c-8446-c22f6c9c0b48}, !- Handle
  Surface 22,                             !- Name
  Wall,                                   !- Surface Type
  ,                                       !- Construction Name
  {f4a143ef-e4e8-4308-bca4-22a893d98786}, !- Space Name
  Surface,                                !- Outside Boundary Condition
  {d3c24d04-7dc5-44c8-96e0-fa06f184d874}, !- Outside Boundary Condition Object
  NoSun,                                  !- Sun Exposure
  NoWind,                                 !- Wind Exposure
  ,                                       !- View Factor to Ground
  ,                                       !- Number of Vertices
  95.43, 4.57, 3.8,                       !- X,Y,Z Vertex 1 {m}
  95.43, 4.57, 0,                         !- X,Y,Z Vertex 2 {m}
  4.57, 4.57, 0,                          !- X,Y,Z Vertex 3 {m}
  4.57, 4.57, 3.8;                        !- X,Y,Z Vertex 4 {m}

OS:Surface,
  {018c15ed-e3db-4d96-b667-16b7f7978c5d}, !- Handle
  Surface 23,                             !- Name
  Wall,                                   !- Surface Type
  ,                                       !- Construction Name
  {f4a143ef-e4e8-4308-bca4-22a893d98786}, !- Space Name
  Surface,                                !- Outside Boundary Condition
  {d6451f92-c138-4ca3-a5d5-3eebf9b7773b}, !- Outside Boundary Condition Object
  NoSun,                                  !- Sun Exposure
  NoWind,                                 !- Wind Exposure
  ,                                       !- View Factor to Ground
  ,                                       !- Number of Vertices
  100, 0, 3.8,                            !- X,Y,Z Vertex 1 {m}
  100, 0, 0,                              !- X,Y,Z Vertex 2 {m}
  95.43, 4.57, 0,                         !- X,Y,Z Vertex 3 {m}
  95.43, 4.57, 3.8;                       !- X,Y,Z Vertex 4 {m}

OS:Surface,
  {250660f6-7239-4a5c-98fa-6e409f230792}, !- Handle
  Surface 24,                             !- Name
  RoofCeiling,                            !- Surface Type
  ,                                       !- Construction Name
  {f4a143ef-e4e8-4308-bca4-22a893d98786}, !- Space Name
  Surface,                                !- Outside Boundary Condition
  {dca25b62-8c83-4c4b-bce1-b86d3e524e0f}, !- Outside Boundary Condition Object
  NoSun,                                  !- Sun Exposure
  NoWind,                                 !- Wind Exposure
  ,                                       !- View Factor to Ground
  ,                                       !- Number of Vertices
  95.43, 4.57, 3.8,                       !- X,Y,Z Vertex 1 {m}
  4.57, 4.57, 3.8,                        !- X,Y,Z Vertex 2 {m}
  0, 0, 3.8,                              !- X,Y,Z Vertex 3 {m}
  100, 0, 3.8;                            !- X,Y,Z Vertex 4 {m}

OS:Space,
  {8db011bc-2164-4cdb-82aa-e91e1690a297}, !- Handle
  Story 0 Core Space,                     !- Name
  ,                                       !- Space Type Name
  ,                                       !- Default Construction Set Name
  ,                                       !- Default Schedule Set Name
  -0,                                     !- Direction of Relative North {deg}
  4.57,                                   !- X Origin {m}
  4.57,                                   !- Y Origin {m}
  -3.8,                                   !- Z Origin {m}
  {f09e218a-f9cf-4674-af53-7f669dde1bbb}; !- Building Story Name

OS:Surface,
  {ff8b1f67-5e86-43a2-9da9-510e960588a6}, !- Handle
  Surface 25,                             !- Name
  Floor,                                  !- Surface Type
  ,                                       !- Construction Name
  {8db011bc-2164-4cdb-82aa-e91e1690a297}, !- Space Name
  Ground,                                 !- Outside Boundary Condition
  ,                                       !- Outside Boundary Condition Object
  NoSun,                                  !- Sun Exposure
  NoWind,                                 !- Wind Exposure
  ,                                       !- View Factor to Ground
  ,                                       !- Number of Vertices
  0, 0, 0,                                !- X,Y,Z Vertex 1 {m}
  0, 90.86, 0,                            !- X,Y,Z Vertex 2 {m}
  90.86, 90.86, 0,                        !- X,Y,Z Vertex 3 {m}
  90.86, 0, 0;                            !- X,Y,Z Vertex 4 {m}

OS:Surface,
  {cc4f0c71-4853-4bf0-bf43-d07a26f0c2d9}, !- Handle
  Surface 26,                             !- Name
  Wall,                                   !- Surface Type
  ,                                       !- Construction Name
  {8db011bc-2164-4cdb-82aa-e91e1690a297}, !- Space Name
  Surface,                                !- Outside Boundary Condition
  {e42c7272-dcd7-4c3e-91ed-8230958aed37}, !- Outside Boundary Condition Object
  NoSun,                                  !- Sun Exposure
  NoWind,                                 !- Wind Exposure
  ,                                       !- View Factor to Ground
  ,                                       !- Number of Vertices
  0, 90.86, 3.8,                          !- X,Y,Z Vertex 1 {m}
  0, 90.86, 0,                            !- X,Y,Z Vertex 2 {m}
  0, 0, 0,                                !- X,Y,Z Vertex 3 {m}
  0, 0, 3.8;                              !- X,Y,Z Vertex 4 {m}

OS:Surface,
  {ef57d84a-d5cb-46c3-9063-c15693850e73}, !- Handle
  Surface 27,                             !- Name
  Wall,                                   !- Surface Type
  ,                                       !- Construction Name
  {8db011bc-2164-4cdb-82aa-e91e1690a297}, !- Space Name
  Surface,                                !- Outside Boundary Condition
  {3ae690db-d5f6-46cd-9897-2ccd4bbd2f54}, !- Outside Boundary Condition Object
  NoSun,                                  !- Sun Exposure
  NoWind,                                 !- Wind Exposure
  ,                                       !- View Factor to Ground
  ,                                       !- Number of Vertices
  90.86, 90.86, 3.8,                      !- X,Y,Z Vertex 1 {m}
  90.86, 90.86, 0,                        !- X,Y,Z Vertex 2 {m}
  0, 90.86, 0,                            !- X,Y,Z Vertex 3 {m}
  0, 90.86, 3.8;                          !- X,Y,Z Vertex 4 {m}

OS:Surface,
  {168628a0-6731-4319-ad9f-271129dfc0e4}, !- Handle
  Surface 28,                             !- Name
  Wall,                                   !- Surface Type
  ,                                       !- Construction Name
  {8db011bc-2164-4cdb-82aa-e91e1690a297}, !- Space Name
  Surface,                                !- Outside Boundary Condition
  {ca4edde4-25f5-4867-92b4-968a27a243b3}, !- Outside Boundary Condition Object
  NoSun,                                  !- Sun Exposure
  NoWind,                                 !- Wind Exposure
  ,                                       !- View Factor to Ground