
Version,
  8.8;                                    !- Version Identifier

Building,
  -SmallOffice-NECB HDD Method-CAN_AB_Banff.CS.711220_CWEC2016.epw created: 2018-06-14 18:29:24 +0000, !- Name
  0,                                      !- North Axis {deg}
  City,                                   !- Terrain
  0.04,                                   !- Loads Convergence Tolerance Value
  0.2,                                    !- Temperature Convergence Tolerance Value {deltaC}
  FullInteriorAndExterior,                !- Solar Distribution
  25,                                     !- Maximum Number of Warmup Days
  6;                                      !- Minimum Number of Warmup Days

Zone,
  Sp-Attic Sys-0 Flr-2 Sch-- undefined - HPlcmt-core ZN, !- Name
  0,                                      !- Direction of Relative North {deg}
  0,                                      !- X Origin {m}
  0,                                      !- Y Origin {m}
  0,                                      !- Z Origin {m}
  ,                                       !- Type
  ,                                       !- Multiplier
  ,                                       !- Ceiling Height {m}
  ,                                       !- Volume {m3}
  ,                                       !- Floor Area {m2}
  ,                                       !- Zone Inside Convection Algorithm
  ,                                       !- Zone Outside Convection Algorithm
  No;                                     !- Part of Total Floor Area

BuildingSurface:Detailed,
  Attic_floor_core,                       !- Name
  Floor,                                  !- Surface Type
  Typical Interior Floor,                 !- Construction Name
  Sp-Attic Sys-0 Flr-2 Sch-- undefined - HPlcmt-core ZN, !- Zone Name
  Surface,                                !- Outside Boundary Condition
  Core_ZN_ceiling,                        !- Outside Boundary Condition Object
  NoSun,                                  !- Sun Exposure
  NoWind,                                 !- Wind Exposure
  ,                                       !- View Factor to Ground
  ,                                       !- Number of Vertices
  22.69, 13.46, 3.05,                     !- X,Y,Z Vertex 1 {m}
  22.69, 5, 3.05,                         !- X,Y,Z Vertex 2 {m}
  5, 5, 3.05,                             !- X,Y,Z Vertex 3 {m}
  5, 13.46, 3.05;                         !- X,Y,Z Vertex 4 {m}

BuildingSurface:Detailed,
  Attic_floor_perimeter_east,             !- Name
  Floor,                                  !- Surface Type
  Typical Interior Floor,                 !- Construction Name
  Sp-Attic Sys-0 Flr-2 Sch-- undefined - HPlcmt-core ZN, !- Zone Name
  Surface,                                !- Outside Boundary Condition
  Perimeter_ZN_2_ceiling,                 !- Outside Boundary Condition Object
  NoSun,                                  !- Sun Exposure
  NoWind,                                 !- Wind Exposure
  ,                                       !- View Factor to Ground
  ,                                       !- Number of Vertices
  27.69, 18.46, 3.05,                     !- X,Y,Z Vertex 1 {m}
  27.69, 0, 3.05,                         !- X,Y,Z Vertex 2 {m}
  22.69, 5, 3.05,                         !- X,Y,Z Vertex 3 {m}
  22.69, 13.46, 3.05;                     !- X,Y,Z Vertex 4 {m}

BuildingSurface:Detailed,
  Attic_floor_perimeter_north,            !- Name
  Floor,                                  !- Surface Type
  Typical Interior Floor,                 !- Construction Name
  Sp-Attic Sys-0 Flr-2 Sch-- undefined - HPlcmt-core ZN, !- Zone Name
  Surface,                                !- Outside Boundary Condition
  Perimeter_ZN_3_ceiling,                 !- Outside Boundary Condition Object
  NoSun,                                  !- Sun Exposure
  NoWind,                                 !- Wind Exposure
  ,                                       !- View Factor to Ground
  ,                                       !- Number of Vertices
  27.69, 18.46, 3.05,                     !- X,Y,Z Vertex 1 {m}
  22.69, 13.46, 3.05,                     !- X,Y,Z Vertex 2 {m}
  5, 13.46, 3.05,                         !- X,Y,Z Vertex 3 {m}
  0, 18.46, 3.05;                         !- X,Y,Z Vertex 4 {m}

BuildingSurface:Detailed,
  Attic_floor_perimeter_south,            !- Name
  Floor,                                  !- Surface Type
  Typical Interior Floor,                 !- Construction Name
  Sp-Attic Sys-0 Flr-2 Sch-- undefined - HPlcmt-core ZN, !- Zone Name
  Surface,                                !- Outside Boundary Condition
  Perimeter_ZN_1_ceiling,                 !- Outside Boundary Condition Object
  NoSun,                                  !- Sun Exposure
  NoWind,                                 !- Wind Exposure
  ,                                       !- View Factor to Ground
  ,                                       !- Number of Vertices
  22.69, 5, 3.05,                         !- X,Y,Z Vertex 1 {m}
  27.69, 0, 3.05,                         !- X,Y,Z Vertex 2 {m}
  0, 0, 3.05,                             !- X,Y,Z Vertex 3 {m}
  5, 5, 3.05;                             !- X,Y,Z Vertex 4 {m}

BuildingSurface:Detailed,
  Attic_floor_perimeter_west,             !- Name
  Floor,                                  !- Surface Type
  Typical Interior Floor,                 !- Construction Name
  Sp-Attic Sys-0 Flr-2 Sch-- undefined - HPlcmt-core ZN, !- Zone Name
  Surface,                                !- Outside Boundary Condition
  Perimeter_ZN_4_ceiling,                 !- Outside Boundary Condition Object
  NoSun,                                  !- Sun Exposure
  NoWind,                                 !- Wind Exposure
  ,                                       !- View Factor to Ground
  ,                                       !- Number of Vertices
  0, 18.46, 3.05,                         !- X,Y,Z Vertex 1 {m}
  5, 13.46, 3.05,                         !- X,Y,Z Vertex 2 {m}
  5, 5, 3.05,                             !- X,Y,Z Vertex 3 {m}
  0, 0, 3.05;                             !- X,Y,Z Vertex 4 {m}

BuildingSurface:Detailed,
  Attic_roof_east,                        !- Name
  Roof,                                   !- Surface Type
  Customized opaque construction Typical Insulated Metal Building Roof R-20.41 to conductance of 0.162, !- Construction Name
  Sp-Attic Sys-0 Flr-2 Sch-- undefined - HPlcmt-core ZN, !- Zone Name
  Outdoors,                               !- Outside Boundary Condition
  ,                                       !- Outside Boundary Condition Object
  SunExposed,                             !- Sun Exposure
  WindExposed,                            !- Wind Exposure
  ,                                       !- View Factor to Ground
  ,                                       !- Number of Vertices
  18.46, 9.23, 6.33,                      !- X,Y,Z Vertex 1 {m}
  28.29, -0.6, 3.05,                      !- X,Y,Z Vertex 2 {m}
  28.29, 19.06, 3.05;                     !- X,Y,Z Vertex 3 {m}

BuildingSurface:Detailed,
  Attic_roof_north,                       !- Name
  Roof,                                   !- Surface Type
  Customized opaque construction Typical Insulated Metal Building Roof R-20.41 to conductance of 0.162, !- Construction Name
  Sp-Attic Sys-0 Flr-2 Sch-- undefined - HPlcmt-core ZN, !- Zone Name
  Outdoors,                               !- Outside Boundary Condition
  ,                                       !- Outside Boundary Condition Object
  SunExposed,                             !- Sun Exposure
  WindExposed,                            !- Wind Exposure
  ,                                       !- View Factor to Ground
  ,                                       !- Number of Vertices
  18.46, 9.23, 6.33,                      !- X,Y,Z Vertex 1 {m}
  28.29, 19.06, 3.05,                     !- X,Y,Z Vertex 2 {m}
  -0.6, 19.06, 3.05,                      !- X,Y,Z Vertex 3 {m}
  9.23, 9.23, 6.33;                       !- X,Y,Z Vertex 4 {m}

BuildingSurface:Detailed,
  Attic_roof_south,                       !- Name
  Roof,                                   !- Surface Type
  Customized opaque construction Typical Insulated Metal Building Roof R-20.41 to conductance of 0.162, !- Construction Name
  Sp-Attic Sys-0 Flr-2 Sch-- undefined - HPlcmt-core ZN, !- Zone Name
  Outdoors,                               !- Outside Boundary Condition
  ,                                       !- Outside Boundary Condition Object
  SunExposed,                             !- Sun Exposure
  WindExposed,                            !- Wind Exposure
  ,                                       !- View Factor to Ground
  ,                                       !- Number of Vertices
  9.23, 9.23, 6.33,                       !- X,Y,Z Vertex 1 {m}
  -0.6, -0.6, 3.05,                       !- X,Y,Z Vertex 2 {m}
  28.29, -0.6, 3.05,                      !- X,Y,Z Vertex 3 {m}
  18.46, 9.23, 6.33;                      !- X,Y,Z Vertex 4 {m}

BuildingSurface:Detailed,
  Attic_roof_west,                        !- Name
  Roof,                                   !- Surface Type
  Customized opaque construction Typical Insulated Metal Building Roof R-20.41 to conductance of 0.162, !- Construction Name
  Sp-Attic Sys-0 Flr-2 Sch-- undefined - HPlcmt-core ZN, !- Zone Name
  Outdoors,                               !- Outside Boundary Condition
  ,                                       !- Outside Boundary Condition Object
  SunExposed,                             !- Sun Exposure
  WindExposed,                            !- Wind Exposure
  ,                                       !- View Factor to Ground
  ,                                       !- Number of Vertices
  9.23, 9.23, 6.33,                       !- X,Y,Z Vertex 1 {m}
  -0.6, 19.06, 3.05,                      !- X,Y,Z Vertex 2 {m}
  -0.6, -0.6, 3.05;                       !- X,Y,Z Vertex 3 {m}

BuildingSurface:Detailed,
  Attic_soffit_east,                      !- Name
  Floor,                                  !- Surface Type
  Customized opaque construction Typical Insulated Exterior Mass Floor R-15.63 to conductance of 0.162, !- Construction Name
  Sp-Attic Sys-0 Flr-2 Sch-- undefined - HPlcmt-core ZN, !- Zone Name
  Outdoors,                               !- Outside Boundary Condition
  ,                                       !- Outside Boundary Condition Object
  SunExposed,                             !- Sun Exposure
  WindExposed,                            !- Wind Exposure
  ,                                       !- View Factor to Ground
  ,                                       !- Number of Vertices
  28.29, 19.06, 3.05,                     !- X,Y,Z Vertex 1 {m}
  28.29, -0.6, 3.05,                      !- X,Y,Z Vertex 2 {m}
  27.69, 0, 3.05,                         !- X,Y,Z Vertex 3 {m}
  27.69, 18.46, 3.05;                     !- X,Y,Z Vertex 4 {m}

BuildingSurface:Detailed,
  Attic_soffit_north,                     !- Name
  Floor,                                  !- Surface Type
  Customized opaque construction Typical Insulated Exterior Mass Floor R-15.63 to conductance of 0.162, !- Construction Name
  Sp-Attic Sys-0 Flr-2 Sch-- undefined - HPlcmt-core ZN, !- Zone Name
  Outdoors,                               !- Outside Boundary Condition
  ,                                       !- Outside Boundary Condition Object
  SunExposed,                             !- Sun Exposure
  WindExposed,                            !- Wind Exposure
  ,                                       !- View Factor to Ground
  ,                                       !- Number of Vertices
  28.29, 19.06, 3.05,                     !- X,Y,Z Vertex 1 {m}
  27.69, 18.46, 3.05,                     !- X,Y,Z Vertex 2 {m}
  0, 18.46, 3.05,                         !- X,Y,Z Vertex 3 {m}
  -0.6, 19.06, 3.05;                      !- X,Y,Z Vertex 4 {m}

BuildingSurface:Detailed,
  Attic_soffit_south,                     !- Name
  Floor,                                  !- Surface Type
  Customized opaque construction Typical Insulated Exterior Mass Floor R-15.63 to conductance of 0.162, !- Construction Name
  Sp-Attic Sys-0 Flr-2 Sch-- undefined - HPlcmt-core ZN, !- Zone Name
  Outdoors,                               !- Outside Boundary Condition
  ,                                       !- Outside Boundary Condition Object
  SunExposed,                             !- Sun Exposure
  WindExposed,                            !- Wind Exposure
  ,                                       !- View Factor to Ground
  ,                                       !- Number of Vertices
  27.69, 0, 3.05,                         !- X,Y,Z Vertex 1 {m}
  28.29, -0.6, 3.05,                      !- X,Y,Z Vertex 2 {m}
  -0.6, -0.6, 3.05,                       !- X,Y,Z Vertex 3 {m}
  0, 0, 3.05;                             !- X,Y,Z Vertex 4 {m}

BuildingSurface:Detailed,
  Attic_soffit_west,                      !- Name
  Floor,                                  !- Surface Type
  Customized opaque construction Typical Insulated Exterior Mass Floor R-15.63 to conductance of 0.162, !- Construction Name
  Sp-Attic Sys-0 Flr-2 Sch-- undefined - HPlcmt-core ZN, !- Zone Name
  Outdoors,                               !- Outside Boundary Condition
  ,                                       !- Outside Boundary Condition Object
  SunExposed,                             !- Sun Exposure
  WindExposed,                            !- Wind Exposure
  ,                                       !- View Factor to Ground
  ,                                       !- Number of Vertices
  -0.6, 19.06, 3.05,                      !- X,Y,Z Vertex 1 {m}
  0, 18.46, 3.05,                         !- X,Y,Z Vertex 2 {m}
  0, 0, 3.05,                             !- X,Y,Z Vertex 3 {m}
  -0.6, -0.6, 3.05;                       !- X,Y,Z Vertex 4 {m}

ZoneInfiltration:DesignFlowRate,
  Attic Infiltration,                     !- Name
  Sp-Attic Sys-0 Flr-2 Sch-- undefined - HPlcmt-core ZN, !- Zone or ZoneList Name
  Always On Discrete,                     !- Schedule Name
  Flow/ExteriorArea,                      !- Design Flow Rate Calculation Method
  ,                                       !- Design Flow Rate {m3/s}
  ,                                       !- Flow per Zone Floor Area {m3/s-m2}
  0.000228332219450618,                   !- Flow per Exterior Surface Area {m3/s-m2}
  ,                                       !- Air Changes per Hour {1/hr}
  0,                                      !- Constant Term Coefficient
  0,                                      !- Temperature Term Coefficient
  0.224,                                  !- Velocity Term Coefficient
  0;                                      !- Velocity Squared Term Coefficient
! 
! HVACTemplate:Zone:IdealLoadsAirSystem,
!   Sp-Attic Sys-0 Flr-2 Sch-- undefined - HPlcmt-core ZN, !- Zone Name
!   ,                                       !- Template Thermostat Name
!   ,                                       !- System Availability Schedule Name
!   ,                                       !- Maximum Heating Supply Air Temperature {C}
!   ,                                       !- Minimum Cooling Supply Air Temperature {C}
!   ,                                       !- Maximum Heating Supply Air Humidity Ratio {kgWater/kgDryAir}
!   ,                                       !- Minimum Cooling Supply Air Humidity Ratio {kgWater/kgDryAir}
!   ,                                       !- Heating Limit
!   ,                                       !- Maximum Heating Air Flow Rate {m3/s}
!   ,                                       !- Maximum Sensible Heating Capacity {W}
!   ,                                       !- Cooling Limit
!   ,                                       !- Maximum Cooling Air Flow Rate {m3/s}
!   ,                                       !- Maximum Total Cooling Capacity {W}
!   ,                                       !- Heating Availability Schedule Name
!   ,                                       !- Cooling Availability Schedule Name
!   ,                                       !- Dehumidification Control Type
!   ,                                       !- Cooling Sensible Heat Ratio {dimensionless}
!   ,                                       !- Dehumidification Setpoint {percent}
!   ,                                       !- Humidification Control Type
!   ,                                       !- Humidification Setpoint {percent}
!   ,                                       !- Outdoor Air Method
!   ,                                       !- Outdoor Air Flow Rate per Person {m3/s}
!   ,                                       !- Outdoor Air Flow Rate per Zone Floor Area {m3/s-m2}
!   ,                                       !- Outdoor Air Flow Rate per Zone {m3/s}
!   ,                                       !- Design Specification Outdoor Air Object Name
!   ;                                       !- Demand Controlled Ventilation Type

Sizing:Zone,
  Sp-Attic Sys-0 Flr-2 Sch-- undefined - HPlcmt-core ZN, !- Zone or ZoneList Name
  SupplyAirTemperature,                   !- Zone Cooling Design Supply Air Temperature Input Method
  14,                                     !- Zone Cooling Design Supply Air Temperature {C}
  11.11,                                  !- Zone Cooling Design Supply Air Temperature Difference {deltaC}
  SupplyAirTemperature,                   !- Zone Heating Design Supply Air Temperature Input Method
  40,                                     !- Zone Heating Design Supply Air Temperature {C}
  11.11,                                  !- Zone Heating Design Supply Air Temperature Difference {deltaC}
  0.0085,                                 !- Zone Cooling Design Supply Air Humidity Ratio {kgWater/kgDryAir}
  0.008,                                  !- Zone Heating Design Supply Air Humidity Ratio {kgWater/kgDryAir}
  Space Function - undefined - Ventilation, !- Design Specification Outdoor Air Object Name
  ,                                       !- Zone Heating Sizing Factor
  ,                                       !- Zone Cooling Sizing Factor
  DesignDay,                              !- Cooling Design Air Flow Method
  0,                                      !- Cooling Design Air Flow Rate {m3/s}
  0.000762,                               !- Cooling Minimum Air Flow per Zone Floor Area {m3/s-m2}
  0,                                      !- Cooling Minimum Air Flow {m3/s}
  0,                                      !- Cooling Minimum Air Flow Fraction
  DesignDay,                              !- Heating Design Air Flow Method
  0,                                      !- Heating Design Air Flow Rate {m3/s}
  0.002032,                               !- Heating Maximum Air Flow per Zone Floor Area {m3/s-m2}
  0.1415762,                              !- Heating Maximum Air Flow {m3/s}
  0.3,                                    !- Heating Maximum Air Flow Fraction
  Sp-Attic Sys-0 Flr-2 Sch-- undefined - HPlcmt-core ZN Design Spec Zone Air Dist, !- Design Specification Zone Air Distribution Object Name
  No;                                     !- Account for Dedicated Outdoor Air System

DesignSpecification:ZoneAirDistribution,
  Sp-Attic Sys-0 Flr-2 Sch-- undefined - HPlcmt-core ZN Design Spec Zone Air Dist, !- Name
  1,                                      !- Zone Air Distribution Effectiveness in Cooling Mode {dimensionless}
  1;                                      !- Zone Air Distribution Effectiveness in Heating Mode {dimensionless}

DesignSpecification:OutdoorAir,
  Space Function - undefined - Ventilation, !- Name
  Sum,                                    !- Outdoor Air Method
  0,                                      !- Outdoor Air Flow per Person {m3/s-person}
  0,                                      !- Outdoor Air Flow per Zone Floor Area {m3/s-m2}
  0,                                      !- Outdoor Air Flow per Zone {m3/s}
  0;                                      !- Outdoor Air Flow Air Changes per Hour {1/hr}

Zone,
  Sp-Core_ZN Sys-3 Flr-1 Sch-A HPlcmt-core ZN, !- Name
  0,                                      !- Direction of Relative North {deg}
  0,                                      !- X Origin {m}
  0,                                      !- Y Origin {m}
  0,                                      !- Z Origin {m}
  ,                                       !- Type
  ,                                       !- Multiplier
  ,                                       !- Ceiling Height {m}
  ,                                       !- Volume {m3}
  ,                                       !- Floor Area {m2}
  ,                                       !- Zone Inside Convection Algorithm
  ,                                       !- Zone Outside Convection Algorithm
  Yes;                                    !- Part of Total Floor Area

BuildingSurface:Detailed,
  Core_ZN_ceiling,                        !- Name
  Ceiling,                                !- Surface Type
  Typical Interior Ceiling,               !- Construction Name
  Sp-Core_ZN Sys-3 Flr-1 Sch-A HPlcmt-core ZN, !- Zone Name
  Surface,                                !- Outside Boundary Condition
  Attic_floor_core,                       !- Outside Boundary Condition Object
  NoSun,                                  !- Sun Exposure
  NoWind,                                 !- Wind Exposure
  ,                                       !- View Factor to Ground
  ,                                       !- Number of Vertices
  22.69, 5, 3.05,                         !- X,Y,Z Vertex 1 {m}
  22.69, 13.46, 3.05,                     !- X,Y,Z Vertex 2 {m}
  5, 13.46, 3.05,                         !- X,Y,Z Vertex 3 {m}
  5, 5, 3.05;                             !- X,Y,Z Vertex 4 {m}

BuildingSurface:Detailed,
  Core_ZN_floor,                          !- Name
  Floor,                                  !- Surface Type
  Customized opaque construction Typical Insulated Carpeted 6in Slab Floor to conductance of 0.757, !- Construction Name
  Sp-Core_ZN Sys-3 Flr-1 Sch-A HPlcmt-core ZN, !- Zone Name
  Ground,                                 !- Outside Boundary Condition
  ,                                       !- Outside Boundary Condition Object
  NoSun,                                  !- Sun Exposure
  NoWind,                                 !- Wind Exposure
  ,                                       !- View Factor to Ground
  ,                                       !- Number of Vertices
  22.69, 13.46, 0,                        !- X,Y,Z Vertex 1 {m}
  22.69, 5, 0,                            !- X,Y,Z Vertex 2 {m}
  5, 5, 0,                                !- X,Y,Z Vertex 3 {m}
  5, 13.46, 0;                            !- X,Y,Z Vertex 4 {m}

BuildingSurface:Detailed,
  Core_ZN_wall_east,                      !- Name
  Wall,                                   !- Surface Type
  Typical Interior Wall,                  !- Construction Name
  Sp-Core_ZN Sys-3 Flr-1 Sch-A HPlcmt-core ZN, !- Zone Name
  Surface,                                !- Outside Boundary Condition
  Perimeter_ZN_2_wall_west,               !- Outside Boundary Condition Object
  NoSun,                                  !- Sun Exposure
  NoWind,                                 !- Wind Exposure
  ,                                       !- View Factor to Ground
  ,                                       !- Number of Vertices
  22.69, 5, 3.05,                         !- X,Y,Z Vertex 1 {m}
  22.69, 5, 0,                            !- X,Y,Z Vertex 2 {m}
  22.69, 13.46, 0,                        !- X,Y,Z Vertex 3 {m}
  22.69, 13.46, 3.05;                     !- X,Y,Z Vertex 4 {m}

BuildingSurface:Detailed,
  Core_ZN_wall_north,                     !- Name
  Wall,                                   !- Surface Type
  Typical Interior Wall,                  !- Construction Name
  Sp-Core_ZN Sys-3 Flr-1 Sch-A HPlcmt-core ZN, !- Zone Name
  Surface,                                !- Outside Boundary Condition
  Perimeter_ZN_3_wall_south,              !- Outside Boundary Condition Object
  NoSun,                                  !- Sun Exposure
  NoWind,                                 !- Wind Exposure
  ,                                       !- View Factor to Ground
  ,                                       !- Number of Vertices
  22.69, 13.46, 3.05,                     !- X,Y,Z Vertex 1 {m}
  22.69, 13.46, 0,                        !- X,Y,Z Vertex 2 {m}
  5, 13.46, 0,                            !- X,Y,Z Vertex 3 {m}
  5, 13.46, 3.05;                         !- X,Y,Z Vertex 4 {m}

BuildingSurface:Detailed,
  Core_ZN_wall_south,                     !- Name
  Wall,                                   !- Surface Type
  Typical Interior Wall,                  !- Construction Name
  Sp-Core_ZN Sys-3 Flr-1 Sch-A HPlcmt-core ZN, !- Zone Name
  Surface,                                !- Outside Boundary Condition
  Perimeter_ZN_1_wall_north,              !- Outside Boundary Condition Object
  NoSun,                                  !- Sun Exposure
  NoWind,                                 !- Wind Exposure
  ,                                       !- View Factor to Ground
  ,                                       !- Number of Vertices
  5, 5, 3.05,                             !- X,Y,Z Vertex 1 {m}
  5, 5, 0,                                !- X,Y,Z Vertex 2 {m}
  22.69, 5, 0,                            !- X,Y,Z Vertex 3 {m}
  22.69, 5, 3.05;                         !- X,Y,Z Vertex 4 {m}

BuildingSurface:Detailed,
  Core_ZN_wall_west,                      !- Name
  Wall,                                   !- Surface Type
  Typical Interior Wall,                  !- Construction Name
  Sp-Core_ZN Sys-3 Flr-1 Sch-A HPlcmt-core ZN, !- Zone Name
  Surface,                                !- Outside Boundary Condition
  Perimeter_ZN_4_wall_east,               !- Outside Boundary Condition Object
  NoSun,                                  !- Sun Exposure
  NoWind,                                 !- Wind Exposure
  ,                                       !- View Factor to Ground
  ,                                       !- Number of Vertices
  5, 13.46, 3.05,                         !- X,Y,Z Vertex 1 {m}
  5, 13.46, 0,                            !- X,Y,Z Vertex 2 {m}
  5, 5, 0,                                !- X,Y,Z Vertex 3 {m}
  5, 5, 3.05;                             !- X,Y,Z Vertex 4 {m}

ZoneControl:Thermostat,
  Sp-Core_ZN Sys-3 Flr-1 Sch-A HPlcmt-core ZN Thermostat, !- Name
  Sp-Core_ZN Sys-3 Flr-1 Sch-A HPlcmt-core ZN, !- Zone or ZoneList Name
  Sp-Core_ZN Sys-3 Flr-1 Sch-A HPlcmt-core ZN Thermostat Schedule, !- Control Type Schedule Name
  ThermostatSetpoint:DualSetpoint,        !- Control Object Type 1
  Space Function Office - enclosed Thermostat 10; !- Control Name 1

Schedule:Compact,
  Sp-Core_ZN Sys-3 Flr-1 Sch-A HPlcmt-core ZN Thermostat Schedule, !- Name
  Sp-Core_ZN Sys-3 Flr-1 Sch-A HPlcmt-core ZN Thermostat Schedule Type Limits, !- Schedule Type Limits Name
  Through: 12/31,                         !- Field 1
  For: AllDays,                           !- Field 2
  Until: 24:00,                           !- Field 3
  4;                                      !- Field 4

ScheduleTypeLimits,
  Sp-Core_ZN Sys-3 Flr-1 Sch-A HPlcmt-core ZN Thermostat Schedule Type Limits, !- Name
  0,                                      !- Lower Limit Value {BasedOnField A3}
  4,                                      !- Upper Limit Value {BasedOnField A3}
  DISCRETE;                               !- Numeric Type

ThermostatSetpoint:DualSetpoint,
  Space Function Office - enclosed Thermostat 10, !- Name
  NECB-A-Thermostat Setpoint-Heating,     !- Heating Setpoint Temperature Schedule Name
  NECB-A-Thermostat Setpoint-Cooling;     !- Cooling Setpoint Temperature Schedule Name

ScheduleTypeLimits,
  Temperature,                            !- Name
  ,                                       !- Lower Limit Value {BasedOnField A3}
  ,                                       !- Upper Limit Value {BasedOnField A3}
  Continuous,                             !- Numeric Type
  temperature;                            !- Unit Type

Schedule:Day:Interval,
  NECB-A-Thermostat Setpoint-Heating Sun|Hol Day, !- Name
  Temperature,                            !- Schedule Type Limits Name
  No,                                     !- Interpolate to Timestep
  24:00,                                  !- Time 1 {hh:mm}
  18;                                     !- Value Until Time 1

Schedule:Day:Interval,
  NECB-A-Thermostat Setpoint-Heating Default|Wkdy Day, !- Name
  Temperature,                            !- Schedule Type Limits Name
  No,                                     !- Interpolate to Timestep
  06:00,                                  !- Time 1 {hh:mm}
  18,                                     !- Value Until Time 1
  07:00,                                  !- Time 2 {hh:mm}
  20,                                     !- Value Until Time 2
  21:00,                                  !- Time 3 {hh:mm}
  22,                                     !- Value Until Time 3
  24:00,                                  !- Time 4 {hh:mm}
  18;                                     !- Value Until Time 4

Schedule:Day:Interval,
  NECB-A-Thermostat Setpoint-Heating Sat Day, !- Name
  Temperature,                            !- Schedule Type Limits Name
  No,                                     !- Interpolate to Timestep
  24:00,                                  !- Time 1 {hh:mm}
  18;                                     !- Value Until Time 1

Schedule:Week:Daily,
  Schedule:Week:Daily {11d6dc7d-22d4-4c2e-88ca-60c366b04dd0}, !- Name
  NECB-A-Thermostat Setpoint-Heating Sun|Hol Day, !- Sunday Schedule:Day Name
  NECB-A-Thermostat Setpoint-Heating Default|Wkdy Day, !- Monday Schedule:Day Name
  NECB-A-Thermostat Setpoint-Heating Default|Wkdy Day, !- Tuesday Schedule:Day Name