
OS:Version,
  {1116f83d-0d35-4bac-aa6b-656936d0f35c}, !- Handle
  2.5.1;                                  !- Version Identifier

OS:Facility,
  {dba99c90-3f8e-4156-a71c-88f445ab1249}; !- Handle

OS:Site,
  {f799f070-0abc-4165-b27b-e00d3e3b6cd2}, !- Handle
  San Luis Co Rgnl_CA_USA,                !- Name
  35.0983939506024,                       !- Latitude {deg}
  -120.610395373076,                      !- Longitude {deg}
  -8,                                     !- Time Zone {hr}
  66,                                     !- Elevation {m}
  City;                                   !- Terrain

OS:SimulationControl,
  {29d5a5e4-c68a-4516-9fe3-ff281e2321db}, !- Handle
  ,                                       !- Do Zone Sizing Calculation
  ,                                       !- Do System Sizing Calculation
  ,                                       !- Do Plant Sizing Calculation
  Yes,                                    !- Run Simulation for Sizing Periods
  No;                                     !- Run Simulation for Weather File Run Periods

OS:Sizing:Parameters,
  {973376a5-ae69-4291-89ad-b8281966b431}, !- Handle
  1.25,                                   !- Heating Sizing Factor
  1.15;                                   !- Cooling Sizing Factor

OS:Timestep,
  {feef2507-020e-4361-a17d-f8fcec961eab}, !- Handle
  1;                                      !- Number of Timesteps per Hour

OS:ShadowCalculation,
  {9e96d73b-ed7c-4560-b02a-9b00bc7deb55}, !- Handle
  20,                                     !- Calculation Frequency
  15000;                                  !- Maximum Figures in Shadow Overlap Calculations

OS:HeatBalanceAlgorithm,
  {7cc20223-0037-4636-9f31-8f9da84cf6b4}, !- Handle
  ConductionTransferFunction,             !- Algorithm
  200;                                    !- Surface Temperature Upper Limit {C}

OS:RunPeriod,
  {0f7a462a-0af1-458d-81bb-db51309da8dd}, !- Handle
  Run Period 1,                           !- Name
  1,                                      !- Begin Month
  1,                                      !- Begin Day of Month
  12,                                     !- End Month
  31,                                     !- End Day of Month
  ,                                       !- Use Weather File Holidays and Special Days
  ,                                       !- Use Weather File Daylight Saving Period
  ,                                       !- Apply Weekend Holiday Rule
  ,                                       !- Use Weather File Rain Indicators
  ,                                       !- Use Weather File Snow Indicators
  ;                                       !- Number of Times Runperiod to be Repeated

OS:LifeCycleCost:Parameters,
  {04aefbef-ab77-4521-b102-9908933a54cb}, !- Handle
  ,                                       !- Analysis Type
  ,                                       !- Discounting Convention
  ,                                       !- Inflation Approach
  ,                                       !- Real Discount Rate
  ,                                       !- Nominal Discount Rate
  ,                                       !- Inflation
  ,                                       !- Base Date Month
  ,                                       !- Base Date Year
  ,                                       !- Service Date Month
  ,                                       !- Service Date Year
  ;                                       !- Length of Study Period in Years

OS:YearDescription,
  {3f4bd815-1d35-471b-92c4-1b808cbebf82}, !- Handle
  2017,                                   !- Calendar Year
  ,                                       !- Day of Week for Start Day
  ;                                       !- Is Leap Year

OS:Site:WaterMainsTemperature,
  {1ef35845-a177-4893-ab8c-d0483f4ff97b}, !- Handle
  Correlation,                            !- Calculation Method
  ,                                       !- Temperature Schedule Name
  0,                                      !- Annual Average Outdoor Air Temperature {C}
  0;                                      !- Maximum Difference In Monthly Average Outdoor Air Temperatures {deltaC}

OS:SizingPeriod:DesignDay,
  {bb455288-9a4c-40a8-b1a6-5ebf3cc2faff}, !- Handle
  San Luis Co Rgnl Ann Clg .4% Condns WB=>MDB, !- Name
  28.1,                                   !- Maximum Dry-Bulb Temperature {C}
  12.2,                                   !- Daily Dry-Bulb Temperature Range {deltaC}
  19.7,                                   !- Humidity Indicating Conditions at Maximum Dry-Bulb
  100535,                                 !- Barometric Pressure {Pa}
  4.9,                                    !- Wind Speed {m/s}
  300,                                    !- Wind Direction {deg}
  0,                                      !- Sky Clearness
  0,                                      !- Rain Indicator
  0,                                      !- Snow Indicator
  21,                                     !- Day of Month
  8,                                      !- Month
  SummerDesignDay,                        !- Day Type
  0,                                      !- Daylight Saving Time Indicator
  Wetbulb,                                !- Humidity Indicating Type
  ,                                       !- Humidity Indicating Day Schedule Name
  DefaultMultipliers,                     !- Dry-Bulb Temperature Range Modifier Type
  ,                                       !- Dry-Bulb Temperature Range Modifier Schedule Name
  ASHRAETau,                              !- Solar Model Indicator
  ,                                       !- Beam Solar Day Schedule Name
  ,                                       !- Diffuse Solar Day Schedule Name
  0.375,                                  !- ASHRAE Taub {dimensionless}
  2.406;                                  !- ASHRAE Taud {dimensionless}

OS:SizingPeriod:DesignDay,
  {8c59f061-dfa7-437f-b5e5-86dbc4e58e17}, !- Handle
  San Luis Co Rgnl Ann Clg .4% Condns DB=>MWB, !- Name
  31.3,                                   !- Maximum Dry-Bulb Temperature {C}
  12.2,                                   !- Daily Dry-Bulb Temperature Range {deltaC}
  17.9,                                   !- Humidity Indicating Conditions at Maximum Dry-Bulb
  100535,                                 !- Barometric Pressure {Pa}
  4.9,                                    !- Wind Speed {m/s}
  300,                                    !- Wind Direction {deg}
  0,                                      !- Sky Clearness
  0,                                      !- Rain Indicator
  0,                                      !- Snow Indicator
  21,                                     !- Day of Month
  8,                                      !- Month
  SummerDesignDay,                        !- Day Type
  0,                                      !- Daylight Saving Time Indicator
  Wetbulb,                                !- Humidity Indicating Type
  ,                                       !- Humidity Indicating Day Schedule Name
  DefaultMultipliers,                     !- Dry-Bulb Temperature Range Modifier Type
  ,                                       !- Dry-Bulb Temperature Range Modifier Schedule Name
  ASHRAETau,                              !- Solar Model Indicator
  ,                                       !- Beam Solar Day Schedule Name
  ,                                       !- Diffuse Solar Day Schedule Name
  0.375,                                  !- ASHRAE Taub {dimensionless}
  2.406;                                  !- ASHRAE Taud {dimensionless}

OS:SizingPeriod:DesignDay,
  {5fa7bbff-47c2-4aac-9f61-98022bf0be25}, !- Handle
  San Luis Co Rgnl Ann Htg 99.6% Condns DB, !- Name
  1.1,                                    !- Maximum Dry-Bulb Temperature {C}
  0,                                      !- Daily Dry-Bulb Temperature Range {deltaC}
  1.1,                                    !- Humidity Indicating Conditions at Maximum Dry-Bulb
  100535,                                 !- Barometric Pressure {Pa}
  0.7,                                    !- Wind Speed {m/s}
  100,                                    !- Wind Direction {deg}
  0,                                      !- Sky Clearness
  0,                                      !- Rain Indicator
  0,                                      !- Snow Indicator
  21,                                     !- Day of Month
  12,                                     !- Month
  WinterDesignDay,                        !- Day Type
  0,                                      !- Daylight Saving Time Indicator
  Wetbulb,                                !- Humidity Indicating Type
  ,                                       !- Humidity Indicating Day Schedule Name
  DefaultMultipliers,                     !- Dry-Bulb Temperature Range Modifier Type
  ,                                       !- Dry-Bulb Temperature Range Modifier Schedule Name
  ASHRAEClearSky;                         !- Solar Model Indicator

OS:ClimateZones,
  {ff921285-3ed7-4522-a4a4-d7ad0136029e}, !- Handle
  ,                                       !- Active Institution
  ,                                       !- Active Year
  ,                                       !- Climate Zone Institution Name 1
  ,                                       !- Climate Zone Document Name 1
  ,                                       !- Climate Zone Document Year 1
  ,                                       !- Climate Zone Value 1
  CEC,                                    !- Climate Zone Institution Name 2
  California Climate Zone Descriptions,   !- Climate Zone Document Name 2
  1995,                                   !- Climate Zone Document Year 2
  5;                                      !- Climate Zone Value 2

OS:Node,
  {43be7aa0-3574-4e06-b11b-f60fca024d0c}, !- Handle
  Node 1,                                 !- Name
  {b6be9165-088a-4a96-8b3e-ed3c738516a4}, !- Inlet Port
  ;                                       !- Outlet Port

OS:Connection,
  {b6be9165-088a-4a96-8b3e-ed3c738516a4}, !- Handle
  {a6954e76-075c-425f-8c01-9792fffbf095}, !- Name
  ,                                       !- Source Object
  11,                                     !- Outlet Port
  {43be7aa0-3574-4e06-b11b-f60fca024d0c}, !- Target Object
  2;                                      !- Inlet Port

OS:PortList,
  {143b08d1-9905-420a-99db-9b8fdcb742d5}, !- Handle
  {71ced759-5383-4044-8837-c646da8edc2f}, !- Name
  ;                                       !- HVAC Component

OS:PortList,
  {a39500dc-2591-4d2a-9c94-369e378e37ed}, !- Handle
  {32340d24-f314-4f67-ac12-ec2a1a97e416}, !- Name
  ;                                       !- HVAC Component

OS:ZoneHVAC:EquipmentList,
  {a3b8fd03-1976-48ef-b6ed-9c5d2af3614e}, !- Handle
  Zone HVAC Equipment List 1,             !- Name
  ;                                       !- Thermal Zone

OS:Node,
  {ee663f08-5505-445b-859f-d65fffd1f53d}, !- Handle
  Node 2,                                 !- Name
  {0fcd2ec8-a7dd-4e3e-b6c0-770203e1a0ff}, !- Inlet Port
  ;                                       !- Outlet Port

OS:Connection,
  {0fcd2ec8-a7dd-4e3e-b6c0-770203e1a0ff}, !- Handle
  {8cc6a256-a8e8-47cf-953f-f135add92d2e}, !- Name
  ,                                       !- Source Object
  11,                                     !- Outlet Port
  {ee663f08-5505-445b-859f-d65fffd1f53d}, !- Target Object
  2;                                      !- Inlet Port

OS:PortList,
  {165b0376-e862-40f7-a39d-9d772612a243}, !- Handle
  {6e7ea755-059e-4a75-a2db-8d08d377cfd0}, !- Name
  ;                                       !- HVAC Component

OS:PortList,
  {9763433f-9e7b-4968-b836-19ba5ac96646}, !- Handle
  {7d79924e-0471-46e1-946c-255cdf07758d}, !- Name
  ;                                       !- HVAC Component

OS:ZoneHVAC:EquipmentList,
  {09f02069-e978-4b27-bc4f-d847dff62f4c}, !- Handle
  Zone HVAC Equipment List 2,             !- Name
  ;                                       !- Thermal Zone

OS:People:Definition,
  {d65c2445-18cf-4e76-b22e-cc5839d7a71f}, !- Handle
  RtS RetailSales People Definition,      !- Name
  People/Area,                            !- Number of People Calculation Method
  ,                                       !- Number of People {people}
  0.238958811250956,                      !- People per Space Floor Area {person/m2}
  ,                                       !- Space Floor Area per Person {m2/person}
  0.3;                                    !- Fraction Radiant

OS:Schedule:Ruleset,
  {cc3e6fb6-f14d-453d-92f7-9923453842fc}, !- Handle
  Clothing Schedule,                      !- Name
  {d8a89ad1-4904-4061-8fd4-1f39f3ce315f}, !- Schedule Type Limits Name
  {191bed47-9de7-4a9d-9147-896673dec370}; !- Default Day Schedule Name

OS:Schedule:Day,
  {191bed47-9de7-4a9d-9147-896673dec370}, !- Handle
  Clothing Schedule Default Winter Clothes, !- Name
  {d8a89ad1-4904-4061-8fd4-1f39f3ce315f}, !- Schedule Type Limits Name
  ,                                       !- Interpolate to Timestep
  24,                                     !- Hour 1
  0,                                      !- Minute 1
  1;                                      !- Value Until Time 1

OS:Schedule:Rule,
  {da88b204-d0f4-42e2-93d0-2c69a80b6381}, !- Handle
  Schedule Rule 1,                        !- Name
  {cc3e6fb6-f14d-453d-92f7-9923453842fc}, !- Schedule Ruleset Name
  0,                                      !- Rule Order
  {24512112-74c4-42e5-962a-717e99b8e917}, !- Day Schedule Name
  ,                                       !- Apply Sunday
  ,                                       !- Apply Monday
  ,                                       !- Apply Tuesday
  ,                                       !- Apply Wednesday
  ,                                       !- Apply Thursday
  ,                                       !- Apply Friday
  ,                                       !- Apply Saturday
  ,                                       !- Apply Holiday
  DateRange,                              !- Date Specification Type
  5,                                      !- Start Month
  1,                                      !- Start Day
  9,                                      !- End Month
  30;                                     !- End Day

OS:Schedule:Day,
  {24512112-74c4-42e5-962a-717e99b8e917}, !- Handle
  Clothing Schedule Summer Clothes,       !- Name
  {d8a89ad1-4904-4061-8fd4-1f39f3ce315f}, !- Schedule Type Limits Name
  ,                                       !- Interpolate to Timestep
  24,                                     !- Hour 1
  0,                                      !- Minute 1
  0.5;                                    !- Value Until Time 1

OS:ScheduleTypeLimits,
  {d8a89ad1-4904-4061-8fd4-1f39f3ce315f}, !- Handle
  ClothingInsulation,                     !- Name
  0,                                      !- Lower Limit Value
  ,                                       !- Upper Limit Value
  Continuous,                             !- Numeric Type
  ClothingInsulation;                     !- Unit Type

OS:Schedule:Ruleset,
  {2007e327-6ea7-4760-8de6-2c8608042019}, !- Handle
  Air Velocity Schedule,                  !- Name
  {102d7be2-b3f3-4d86-a7e2-9bf694076563}, !- Schedule Type Limits Name
  {8001f325-d4f7-4e25-afbb-de21c84d996b}; !- Default Day Schedule Name

OS:Schedule:Day,
  {8001f325-d4f7-4e25-afbb-de21c84d996b}, !- Handle
  Air Velocity Schedule Default,          !- Name
  {102d7be2-b3f3-4d86-a7e2-9bf694076563}, !- Schedule Type Limits Name
  ,                                       !- Interpolate to Timestep
  24,                                     !- Hour 1
  0,                                      !- Minute 1
  0.2;                                    !- Value Until Time 1

OS:ScheduleTypeLimits,
  {102d7be2-b3f3-4d86-a7e2-9bf694076563}, !- Handle
  Velocity,                               !- Name
  0,                                      !- Lower Limit Value
  ,                                       !- Upper Limit Value
  Continuous,                             !- Numeric Type
  Velocity;                               !- Unit Type

OS:Schedule:Ruleset,
  {11f1cd6f-cc5e-4133-85a3-908bf2ad0559}, !- Handle
  Work Efficiency Schedule,               !- Name
  {6f42bd29-019c-48c2-b29d-5a5c3c797e19}, !- Schedule Type Limits Name
  {2161ff45-15d6-4bec-b516-74764d6656f7}; !- Default Day Schedule Name

OS:Schedule:Day,
  {2161ff45-15d6-4bec-b516-74764d6656f7}, !- Handle
  Work Efficiency Schedule Default,       !- Name
  {6f42bd29-019c-48c2-b29d-5a5c3c797e19}, !- Schedule Type Limits Name
  ,                                       !- Interpolate to Timestep
  24,                                     !- Hour 1
  0,                                      !- Minute 1
  0;                                      !- Value Until Time 1

OS:ScheduleTypeLimits,
  {6f42bd29-019c-48c2-b29d-5a5c3c797e19}, !- Handle
  Fractional,                             !- Name
  0,                                      !- Lower Limit Value
  1,                                      !- Upper Limit Value
  Continuous;                             !- Numeric Type

OS:Lights:Definition,
  {cac28933-483c-488f-b0a3-1044fd1fb37d}, !- Handle
  RtS RetailSales Lights Definition,      !- Name
  Watts/Area,                             !- Design Level Calculation Method
  ,                                       !- Lighting Level {W}
  17.2222566667356,                       !- Watts per Space Floor Area {W/m2}
  ;                                       !- Watts per Person {W/person}

OS:ElectricEquipment:Definition,
  {b39fd07d-492f-4e1c-82c7-c16e509d43a4}, !- Handle
  RtS RetailSales Elec Equip Definition,  !- Name
  Watts/Area,                             !- Design Level Calculation Method
  ,                                       !- Design Level {W}
  11.8403014583807,                       !- Watts per Space Floor Area {W/m2}
  ,                                       !- Watts per Person {W/person}
  ,                                       !- Fraction Latent
  0.5;                                    !- Fraction Radiant

OS:DesignSpecification:OutdoorAir,
  {930f684f-4b2a-49a3-918a-dcd3dc94adc6}, !- Handle
  RtS RetailSales Ventilation,            !- Name
  Sum,                                    !- Outdoor Air Method
  ,                                       !- Outdoor Air Flow per Person {m3/s-person}
  0.001524,                               !- Outdoor Air Flow per Floor Area {m3/s-m2}
  ,                                       !- Outdoor Air Flow Rate {m3/s}
  ,                                       !- Outdoor Air Flow Air Changes per Hour {1/hr}
  ;                                       !- Outdoor Air Flow Rate Fraction Schedule Name

OS:DefaultScheduleSet,
  {2816572a-f975-4fa2-81cc-bc3347a20768}, !- Handle
  RtS RetailSales Schedule Set,           !- Name
  ,                                       !- Hours of Operation Schedule Name
  {915ecf8a-073c-4e4a-afdf-2965fd221493}, !- Number of People Schedule Name
  {3eeeeff2-c724-406a-9956-5fe3732c8c3f}, !- People Activity Level Schedule Name
  {c6a63a53-ec7d-4133-8ccc-e05ab0530844}, !- Lighting Schedule Name
  {470a5241-0dcc-48ee-b9e8-65ecdb1cc664}, !- Electric Equipment Schedule Name
  ,                                       !- Gas Equipment Schedule Name
  ,                                       !- Hot Water Equipment Schedule Name
  {6c990cf1-065b-4bac-b2a2-212daaad72bc}, !- Infiltration Schedule Name
  ,                                       !- Steam Equipment Schedule Name
  ;                                       !- Other Equipment Schedule Name

OS:Schedule:Ruleset,
  {915ecf8a-073c-4e4a-afdf-2965fd221493}, !- Handle
  D_RtS_All_Occup_Yr,                     !- Name
  {6f42bd29-019c-48c2-b29d-5a5c3c797e19}, !- Schedule Type Limits Name
  {384b2673-dbda-4c75-bf97-488fc4b88577}, !- Default Day Schedule Name
  {09be45b4-ac47-487d-8ee8-9c7792c25de8}, !- Summer Design Day Schedule Name
  {03b6ed40-5ec6-4e14-b406-b779ceef44b5}; !- Winter Design Day Schedule Name

OS:Schedule:Day,
  {384b2673-dbda-4c75-bf97-488fc4b88577}, !- Handle
  D_RtS_All_Occup_Yr Default,             !- Name
  {6f42bd29-019c-48c2-b29d-5a5c3c797e19}, !- Schedule Type Limits Name
  ,                                       !- Interpolate to Timestep
  8,                                      !- Hour 1
  0,                                      !- Minute 1
  0,                                      !- Value Until Time 1
  9,                                      !- Hour 2
  0,                                      !- Minute 2
  0.05,                                   !- Value Until Time 2
  10,                                     !- Hour 3
  0,                                      !- Minute 3
  0.2,                                    !- Value Until Time 3
  20,                                     !- Hour 4
  0,                                      !- Minute 4
  0.6,                                    !- Value Until Time 4
  21,                                     !- Hour 5
  0,                                      !- Minute 5
  0.05,                                   !- Value Until Time 5
  24,                                     !- Hour 6
  0,                                      !- Minute 6
  0;                                      !- Value Until Time 6

OS:Schedule:Rule,
  {9cd2966c-00b2-49e3-88e8-5c2187e05e8b}, !- Handle
  Schedule Rule 2,                        !- Name
  {915ecf8a-073c-4e4a-afdf-2965fd221493}, !- Schedule Ruleset Name
  2,                                      !- Rule Order
  {b377eeb2-72f4-4659-9961-c6084dc0f7e7}, !- Day Schedule Name
  ,                                       !- Apply Sunday
  Yes,                                    !- Apply Monday
  Yes,                                    !- Apply Tuesday
  Yes,                                    !- Apply Wednesday
  Yes,                                    !- Apply Thursday
  Yes,                                    !- Apply Friday
  ,                                       !- Apply Saturday
  ,                                       !- Apply Holiday
  DateRange,                              !- Date Specification Type
  1,                                      !- Start Month
  1,                                      !- Start Day
  12,                                     !- End Month
  31;                                     !- End Day

OS:Schedule:Day,
  {b377eeb2-72f4-4659-9961-c6084dc0f7e7}, !- Handle
  D_RtS_All_Occup_Yr Default|Wkdy Day,    !- Name
  {6f42bd29-019c-48c2-b29d-5a5c3c797e19}, !- Schedule Type Limits Name
  ,                                       !- Interpolate to Timestep
  8,                                      !- Hour 1
  0,                                      !- Minute 1
  0,                                      !- Value Until Time 1
  9,                                      !- Hour 2
  0,                                      !- Minute 2
  0.05,                                   !- Value Until Time 2
  10,                                     !- Hour 3
  0,                                      !- Minute 3
  0.2,                                    !- Value Until Time 3
  20,                                     !- Hour 4
  0,                                      !- Minute 4
  0.6,                                    !- Value Until Time 4
  21,                                     !- Hour 5
  0,                                      !- Minute 5
  0.05,                                   !- Value Until Time 5
  24,                                     !- Hour 6
  0,                                      !- Minute 6
  0;                                      !- Value Until Time 6

OS:Schedule:Rule,
  {d058c257-968a-4524-b7d8-d10e423cebe6}, !- Handle
  Schedule Rule 3,                        !- Name
  {915ecf8a-073c-4e4a-afdf-2965fd221493}, !- Schedule Ruleset Name
  1,                                      !- Rule Order
  {be9ad907-24bc-4d10-b9b9-3e6ce39615e8}, !- Day Schedule Name
  ,                                       !- Apply Sunday
  ,                                       !- Apply Monday
  ,                                       !- Apply Tuesday
  ,                                       !- Apply Wednesday
  ,                                       !- Apply Thursday
  ,                                       !- Apply Friday
  Yes,                                    !- Apply Saturday
  ,                                       !- Apply Holiday
  DateRange,                              !- Date Specification Type
  1,                                      !- Start Month
  1,                                      !- Start Day
  12,                                     !- End Month
  31;                                     !- End Day

OS:Schedule:Day,
  {be9ad907-24bc-4d10-b9b9-3e6ce39615e8}, !- Handle
  D_RtS_All_Occup_Yr Sat Day,             !- Name
  {6f42bd29-019c-48c2-b29d-5a5c3c797e19}, !- Schedule Type Limits Name
  ,                                       !- Interpolate to Timestep
  8,                                      !- Hour 1
  0,                                      !- Minute 1
  0,                                      !- Value Until Time 1
  9,                                      !- Hour 2
  0,                                      !- Minute 2
  0.05,                                   !- Value Until Time 2
  10,                                     !- Hour 3
  0,                                      !- Minute 3
  0.1,                                    !- Value Until Time 3
  11,                                     !- Hour 4
  0,                                      !- Minute 4
  0.7,                                    !- Value Until Time 4
  12,                                     !- Hour 5
  0,                                      !- Minute 5
  0.4,                                    !- Value Until Time 5
  14,                                     !- Hour 6
  0,                                      !- Minute 6
  0.7,                                    !- Value Until Time 6
  17,                                     !- Hour 7
  0,                                      !- Minute 7
  0.9,                                    !- Value Until Time 7
  18,                                     !- Hour 8
  0,                                      !- Minute 8
  0.8,                                    !- Value Until Time 8
  19,                                     !- Hour 9
  0,                                      !- Minute 9
  0.7,                                    !- Value Until Time 9
  20,                                     !- Hour 10
  0,                                      !- Minute 10
  0.65,                                   !- Value Until Time 10
  24,                                     !- Hour 11
  0,                                      !- Minute 11
  0;                                      !- Value Until Time 11

OS:Schedule:Day,
  {09be45b4-ac47-487d-8ee8-9c7792c25de8}, !- Handle
  D_RtS_All_Occup_Yr Summer Design Day,   !- Name
  {6f42bd29-019c-48c2-b29d-5a5c3c797e19}, !- Schedule Type Limits Name
  ,                                       !- Interpolate to Timestep
  9,                                      !- Hour 1
  0,                                      !- Minute 1
  0,                                      !- Value Until Time 1
  10,                                     !- Hour 2
  0,                                      !- Minute 2
  0.05,                                   !- Value Until Time 2
  11,                                     !- Hour 3
  0,                                      !- Minute 3
  0.4,                                    !- Value Until Time 3
  12,                                     !- Hour 4
  0,                                      !- Minute 4
  0.7,                                    !- Value Until Time 4
  13,                                     !- Hour 5
  0,                                      !- Minute 5
  0.9,                                    !- Value Until Time 5
  15,                                     !- Hour 6
  0,                                      !- Minute 6
  0.95,                                   !- Value Until Time 6
  16,                                     !- Hour 7
  0,                                      !- Minute 7
  0.9,                                    !- Value Until Time 7
  17,                                     !- Hour 8
  0,                                      !- Minute 8
  0.7,                                    !- Value Until Time 8
  18,                                     !- Hour 9
  0,                                      !- Minute 9
  0.3,                                    !- Value Until Time 9
  19,                                     !- Hour 10
  0,                                      !- Minute 10
  0.1,                                    !- Value Until Time 10
  20,                                     !- Hour 11
  0,                                      !- Minute 11
  0.05,                                   !- Value Until Time 11
  24,                                     !- Hour 12
  0,                                      !- Minute 12
  0;                                      !- Value Until Time 12

OS:Schedule:Rule,
  {61d1d6ba-b0fe-4c38-ab33-afc6b2a3d0be}, !- Handle
  Schedule Rule 4,                        !- Name
  {915ecf8a-073c-4e4a-afdf-2965fd221493}, !- Schedule Ruleset Name
  0,                                      !- Rule Order
  {68ad8117-edb6-454f-b489-73d23bacbe69}, !- Day Schedule Name
  Yes,                                    !- Apply Sunday
  ,                                       !- Apply Monday
  ,                                       !- Apply Tuesday
  ,                                       !- Apply Wednesday
  ,                                       !- Apply Thursday
  ,                                       !- Apply Friday
  ,                                       !- Apply Saturday
  ,                                       !- Apply Holiday