
OS:Version,
  {8f7d4df0-3352-440b-ac14-ac8917217617}, !- Handle
  2.4.1;                                  !- Version Identifier

OS:BuildingStory,
  {8cb9dce0-db48-4a62-9982-3c643638b938}, !- Handle
  Story 0,                                !- Name
  -3.8,                                   !- Nominal Z Coordinate {m}
  3.8,                                    !- Nominal Floor to Floor Height {m}
  ,                                       !- Default Construction Set Name
  ,                                       !- Default Schedule Set Name
  ;                                       !- Group Rendering Name

OS:Space,
  {36916f47-58df-471a-8ced-cf4a3e873a2f}, !- Handle
  Story 0 West Perimeter Space,           !- Name
  ,                                       !- Space Type Name
  ,                                       !- Default Construction Set Name
  ,                                       !- Default Schedule Set Name
  -0,                                     !- Direction of Relative North {deg}
  0,                                      !- X Origin {m}
  0,                                      !- Y Origin {m}
  -3.8,                                   !- Z Origin {m}
  {8cb9dce0-db48-4a62-9982-3c643638b938}; !- Building Story Name

OS:Surface,
  {77eb2f2c-1349-411d-a440-4e7ad17ce5d0}, !- Handle
  Surface 1,                              !- Name
  Floor,                                  !- Surface Type
  ,                                       !- Construction Name
  {36916f47-58df-471a-8ced-cf4a3e873a2f}, !- Space Name
  Ground,                                 !- Outside Boundary Condition
  ,                                       !- Outside Boundary Condition Object
  NoSun,                                  !- Sun Exposure
  NoWind,                                 !- Wind Exposure
  ,                                       !- View Factor to Ground
  ,                                       !- Number of Vertices
  0, 0, 0,                                !- X,Y,Z Vertex 1 {m}
  0, 100, 0,                              !- X,Y,Z Vertex 2 {m}
  4.57, 95.43, 0,                         !- X,Y,Z Vertex 3 {m}
  4.57, 4.57, 0;                          !- X,Y,Z Vertex 4 {m}

OS:Surface,
  {76b54fff-3c74-4e02-acff-97fe05244f44}, !- Handle
  Surface 2,                              !- Name
  Wall,                                   !- Surface Type
  ,                                       !- Construction Name
  {36916f47-58df-471a-8ced-cf4a3e873a2f}, !- Space Name
  Ground,                                 !- Outside Boundary Condition
  ,                                       !- Outside Boundary Condition Object
  NoSun,                                  !- Sun Exposure
  NoWind,                                 !- Wind Exposure
  ,                                       !- View Factor to Ground
  ,                                       !- Number of Vertices
  0, 100, 3.8,                            !- X,Y,Z Vertex 1 {m}
  0, 100, 0,                              !- X,Y,Z Vertex 2 {m}
  0, 0, 0,                                !- X,Y,Z Vertex 3 {m}
  0, 0, 3.8;                              !- X,Y,Z Vertex 4 {m}

OS:Surface,
  {003ac130-c3a4-4b3a-ac49-7f28e3a85900}, !- Handle
  Surface 3,                              !- Name
  Wall,                                   !- Surface Type
  ,                                       !- Construction Name
  {36916f47-58df-471a-8ced-cf4a3e873a2f}, !- Space Name
  Surface,                                !- Outside Boundary Condition
  {d365317c-ef7e-45a0-a51c-c6187c0489cf}, !- Outside Boundary Condition Object
  NoSun,                                  !- Sun Exposure
  NoWind,                                 !- Wind Exposure
  ,                                       !- View Factor to Ground
  ,                                       !- Number of Vertices
  4.57, 95.43, 3.8,                       !- X,Y,Z Vertex 1 {m}
  4.57, 95.43, 0,                         !- X,Y,Z Vertex 2 {m}
  0, 100, 0,                              !- X,Y,Z Vertex 3 {m}
  0, 100, 3.8;                            !- X,Y,Z Vertex 4 {m}

OS:Surface,
  {7fd9a872-5486-4838-a17e-11201ecfc4e0}, !- Handle
  Surface 4,                              !- Name
  Wall,                                   !- Surface Type
  ,                                       !- Construction Name
  {36916f47-58df-471a-8ced-cf4a3e873a2f}, !- Space Name
  Surface,                                !- Outside Boundary Condition
  {853fbcfa-9d99-4d01-a3a0-23bd0738a910}, !- Outside Boundary Condition Object
  NoSun,                                  !- Sun Exposure
  NoWind,                                 !- Wind Exposure
  ,                                       !- View Factor to Ground
  ,                                       !- Number of Vertices
  4.57, 4.57, 3.8,                        !- X,Y,Z Vertex 1 {m}
  4.57, 4.57, 0,                          !- X,Y,Z Vertex 2 {m}
  4.57, 95.43, 0,                         !- X,Y,Z Vertex 3 {m}
  4.57, 95.43, 3.8;                       !- X,Y,Z Vertex 4 {m}

OS:Surface,
  {2b71dee2-674a-4f0c-a3b6-895dd4a8e1b6}, !- Handle
  Surface 5,                              !- Name
  Wall,                                   !- Surface Type
  ,                                       !- Construction Name
  {36916f47-58df-471a-8ced-cf4a3e873a2f}, !- Space Name
  Surface,                                !- Outside Boundary Condition
  {e1bf908e-b7f3-419a-a5e5-ab3f1e869f02}, !- Outside Boundary Condition Object
  NoSun,                                  !- Sun Exposure
  NoWind,                                 !- Wind Exposure
  ,                                       !- View Factor to Ground
  ,                                       !- Number of Vertices
  0, 0, 3.8,                              !- X,Y,Z Vertex 1 {m}
  0, 0, 0,                                !- X,Y,Z Vertex 2 {m}
  4.57, 4.57, 0,                          !- X,Y,Z Vertex 3 {m}
  4.57, 4.57, 3.8;                        !- X,Y,Z Vertex 4 {m}

OS:Surface,
  {bc835365-52d1-4daf-b13d-d720016becf6}, !- Handle
  Surface 6,                              !- Name
  RoofCeiling,                            !- Surface Type
  ,                                       !- Construction Name
  {36916f47-58df-471a-8ced-cf4a3e873a2f}, !- Space Name
  Surface,                                !- Outside Boundary Condition
  {ae003239-2214-457b-86b2-f5b5e491bfe1}, !- Outside Boundary Condition Object
  NoSun,                                  !- Sun Exposure
  NoWind,                                 !- Wind Exposure
  ,                                       !- View Factor to Ground
  ,                                       !- Number of Vertices
  4.57, 4.57, 3.8,                        !- X,Y,Z Vertex 1 {m}
  4.57, 95.43, 3.8,                       !- X,Y,Z Vertex 2 {m}
  0, 100, 3.8,                            !- X,Y,Z Vertex 3 {m}
  0, 0, 3.8;                              !- X,Y,Z Vertex 4 {m}

OS:Space,
  {acb32372-51a5-4f80-9784-060d257c2038}, !- Handle
  Story 0 North Perimeter Space,          !- Name
  ,                                       !- Space Type Name
  ,                                       !- Default Construction Set Name
  ,                                       !- Default Schedule Set Name
  -0,                                     !- Direction of Relative North {deg}
  4.57,                                   !- X Origin {m}
  95.43,                                  !- Y Origin {m}
  -3.8,                                   !- Z Origin {m}
  {8cb9dce0-db48-4a62-9982-3c643638b938}; !- Building Story Name

OS:Surface,
  {744814fe-ced0-4d18-8de1-310f63925156}, !- Handle
  Surface 7,                              !- Name
  Floor,                                  !- Surface Type
  ,                                       !- Construction Name
  {acb32372-51a5-4f80-9784-060d257c2038}, !- Space Name
  Ground,                                 !- Outside Boundary Condition
  ,                                       !- Outside Boundary Condition Object
  NoSun,                                  !- Sun Exposure
  NoWind,                                 !- Wind Exposure
  ,                                       !- View Factor to Ground
  ,                                       !- Number of Vertices
  -4.57, 4.56999999999999, 0,             !- X,Y,Z Vertex 1 {m}
  95.43, 4.56999999999999, 0,             !- X,Y,Z Vertex 2 {m}
  90.86, 0, 0,                            !- X,Y,Z Vertex 3 {m}
  0, 0, 0;                                !- X,Y,Z Vertex 4 {m}

OS:Surface,
  {f559ed40-b881-4818-bbd2-9fa535fc3aff}, !- Handle
  Surface 8,                              !- Name
  Wall,                                   !- Surface Type
  ,                                       !- Construction Name
  {acb32372-51a5-4f80-9784-060d257c2038}, !- Space Name
  Ground,                                 !- Outside Boundary Condition
  ,                                       !- Outside Boundary Condition Object
  NoSun,                                  !- Sun Exposure
  NoWind,                                 !- Wind Exposure
  ,                                       !- View Factor to Ground
  ,                                       !- Number of Vertices
  95.43, 4.56999999999999, 3.8,           !- X,Y,Z Vertex 1 {m}
  95.43, 4.56999999999999, 0,             !- X,Y,Z Vertex 2 {m}
  -4.57, 4.56999999999999, 0,             !- X,Y,Z Vertex 3 {m}
  -4.57, 4.56999999999999, 3.8;           !- X,Y,Z Vertex 4 {m}

OS:Surface,
  {e9835228-893b-4ad9-b51b-b45c54bd6bb0}, !- Handle
  Surface 9,                              !- Name
  Wall,                                   !- Surface Type
  ,                                       !- Construction Name
  {acb32372-51a5-4f80-9784-060d257c2038}, !- Space Name
  Surface,                                !- Outside Boundary Condition
  {e6c5e5dd-831e-4944-bf2b-52e341843976}, !- Outside Boundary Condition Object
  NoSun,                                  !- Sun Exposure
  NoWind,                                 !- Wind Exposure
  ,                                       !- View Factor to Ground
  ,                                       !- Number of Vertices
  90.86, 0, 3.8,                          !- X,Y,Z Vertex 1 {m}
  90.86, 0, 0,                            !- X,Y,Z Vertex 2 {m}
  95.43, 4.56999999999999, 0,             !- X,Y,Z Vertex 3 {m}
  95.43, 4.56999999999999, 3.8;           !- X,Y,Z Vertex 4 {m}

OS:Surface,
  {da78e158-1ee2-4ac3-831e-afc8062f7b07}, !- Handle
  Surface 10,                             !- Name
  Wall,                                   !- Surface Type
  ,                                       !- Construction Name
  {acb32372-51a5-4f80-9784-060d257c2038}, !- Space Name
  Surface,                                !- Outside Boundary Condition
  {cba86ecc-ef9d-4b9d-ae34-15e5b5a562a2}, !- Outside Boundary Condition Object
  NoSun,                                  !- Sun Exposure
  NoWind,                                 !- Wind Exposure
  ,                                       !- View Factor to Ground
  ,                                       !- Number of Vertices
  0, 0, 3.8,                              !- X,Y,Z Vertex 1 {m}
  0, 0, 0,                                !- X,Y,Z Vertex 2 {m}
  90.86, 0, 0,                            !- X,Y,Z Vertex 3 {m}
  90.86, 0, 3.8;                          !- X,Y,Z Vertex 4 {m}

OS:Surface,
  {d365317c-ef7e-45a0-a51c-c6187c0489cf}, !- Handle
  Surface 11,                             !- Name
  Wall,                                   !- Surface Type
  ,                                       !- Construction Name
  {acb32372-51a5-4f80-9784-060d257c2038}, !- Space Name
  Surface,                                !- Outside Boundary Condition
  {003ac130-c3a4-4b3a-ac49-7f28e3a85900}, !- Outside Boundary Condition Object
  NoSun,                                  !- Sun Exposure
  NoWind,                                 !- Wind Exposure
  ,                                       !- View Factor to Ground
  ,                                       !- Number of Vertices
  -4.57, 4.56999999999999, 3.8,           !- X,Y,Z Vertex 1 {m}
  -4.57, 4.56999999999999, 0,             !- X,Y,Z Vertex 2 {m}
  0, 0, 0,                                !- X,Y,Z Vertex 3 {m}
  0, 0, 3.8;                              !- X,Y,Z Vertex 4 {m}

OS:Surface,
  {2cb7250d-cd75-4cc2-8e45-e8a994975377}, !- Handle
  Surface 12,                             !- Name
  RoofCeiling,                            !- Surface Type
  ,                                       !- Construction Name
  {acb32372-51a5-4f80-9784-060d257c2038}, !- Space Name
  Surface,                                !- Outside Boundary Condition
  {d5167797-7c2b-4c67-af5a-1b9930878624}, !- Outside Boundary Condition Object
  NoSun,                                  !- Sun Exposure
  NoWind,                                 !- Wind Exposure
  ,                                       !- View Factor to Ground
  ,                                       !- Number of Vertices
  0, 0, 3.8,                              !- X,Y,Z Vertex 1 {m}
  90.86, 0, 3.8,                          !- X,Y,Z Vertex 2 {m}
  95.43, 4.56999999999999, 3.8,           !- X,Y,Z Vertex 3 {m}
  -4.57, 4.56999999999999, 3.8;           !- X,Y,Z Vertex 4 {m}

OS:Space,
  {2642cd4d-0cc2-4dd7-9993-84381e98dae0}, !- Handle
  Story 0 East Perimeter Space,           !- Name
  ,                                       !- Space Type Name
  ,                                       !- Default Construction Set Name
  ,                                       !- Default Schedule Set Name
  -0,                                     !- Direction of Relative North {deg}
  95.43,                                  !- X Origin {m}
  4.57,                                   !- Y Origin {m}
  -3.8,                                   !- Z Origin {m}
  {8cb9dce0-db48-4a62-9982-3c643638b938}; !- Building Story Name

OS:Surface,
  {5844dcc5-63cf-47af-adc6-8fca7508d10a}, !- Handle
  Surface 13,                             !- Name
  Floor,                                  !- Surface Type
  ,                                       !- Construction Name
  {2642cd4d-0cc2-4dd7-9993-84381e98dae0}, !- Space Name
  Ground,                                 !- Outside Boundary Condition
  ,                                       !- Outside Boundary Condition Object
  NoSun,                                  !- Sun Exposure
  NoWind,                                 !- Wind Exposure
  ,                                       !- View Factor to Ground
  ,                                       !- Number of Vertices
  4.56999999999999, 95.43, 0,             !- X,Y,Z Vertex 1 {m}
  4.56999999999999, -4.57, 0,             !- X,Y,Z Vertex 2 {m}
  0, 0, 0,                                !- X,Y,Z Vertex 3 {m}
  0, 90.86, 0;                            !- X,Y,Z Vertex 4 {m}

OS:Surface,
  {0f150fea-cf5c-430d-87f4-ee40105c858a}, !- Handle
  Surface 14,                             !- Name
  Wall,                                   !- Surface Type
  ,                                       !- Construction Name
  {2642cd4d-0cc2-4dd7-9993-84381e98dae0}, !- Space Name
  Ground,                                 !- Outside Boundary Condition
  ,                                       !- Outside Boundary Condition Object
  NoSun,                                  !- Sun Exposure
  NoWind,                                 !- Wind Exposure
  ,                                       !- View Factor to Ground
  ,                                       !- Number of Vertices
  4.56999999999999, -4.57, 3.8,           !- X,Y,Z Vertex 1 {m}
  4.56999999999999, -4.57, 0,             !- X,Y,Z Vertex 2 {m}
  4.56999999999999, 95.43, 0,             !- X,Y,Z Vertex 3 {m}
  4.56999999999999, 95.43, 3.8;           !- X,Y,Z Vertex 4 {m}

OS:Surface,
  {806996e0-b603-4ded-b838-3a6a1d34c721}, !- Handle
  Surface 15,                             !- Name
  Wall,                                   !- Surface Type
  ,                                       !- Construction Name
  {2642cd4d-0cc2-4dd7-9993-84381e98dae0}, !- Space Name
  Surface,                                !- Outside Boundary Condition
  {94069e6e-4d45-47b9-95ee-7232b0be0312}, !- Outside Boundary Condition Object
  NoSun,                                  !- Sun Exposure
  NoWind,                                 !- Wind Exposure
  ,                                       !- View Factor to Ground
  ,                                       !- Number of Vertices
  0, 0, 3.8,                              !- X,Y,Z Vertex 1 {m}
  0, 0, 0,                                !- X,Y,Z Vertex 2 {m}
  4.56999999999999, -4.57, 0,             !- X,Y,Z Vertex 3 {m}
  4.56999999999999, -4.57, 3.8;           !- X,Y,Z Vertex 4 {m}

OS:Surface,
  {60aa8d05-2509-4c2c-862a-e10894c5bfb2}, !- Handle
  Surface 16,                             !- Name
  Wall,                                   !- Surface Type
  ,                                       !- Construction Name
  {2642cd4d-0cc2-4dd7-9993-84381e98dae0}, !- Space Name
  Surface,                                !- Outside Boundary Condition
  {fe0abd65-7963-4780-a1bc-5cc49fc0ed73}, !- Outside Boundary Condition Object
  NoSun,                                  !- Sun Exposure
  NoWind,                                 !- Wind Exposure
  ,                                       !- View Factor to Ground
  ,                                       !- Number of Vertices
  0, 90.86, 3.8,                          !- X,Y,Z Vertex 1 {m}
  0, 90.86, 0,                            !- X,Y,Z Vertex 2 {m}
  0, 0, 0,                                !- X,Y,Z Vertex 3 {m}
  0, 0, 3.8;                              !- X,Y,Z Vertex 4 {m}

OS:Surface,
  {e6c5e5dd-831e-4944-bf2b-52e341843976}, !- Handle
  Surface 17,                             !- Name
  Wall,                                   !- Surface Type
  ,                                       !- Construction Name
  {2642cd4d-0cc2-4dd7-9993-84381e98dae0}, !- Space Name
  Surface,                                !- Outside Boundary Condition
  {e9835228-893b-4ad9-b51b-b45c54bd6bb0}, !- Outside Boundary Condition Object
  NoSun,                                  !- Sun Exposure
  NoWind,                                 !- Wind Exposure
  ,                                       !- View Factor to Ground
  ,                                       !- Number of Vertices
  4.56999999999999, 95.43, 3.8,           !- X,Y,Z Vertex 1 {m}
  4.56999999999999, 95.43, 0,             !- X,Y,Z Vertex 2 {m}
  0, 90.86, 0,                            !- X,Y,Z Vertex 3 {m}
  0, 90.86, 3.8;                          !- X,Y,Z Vertex 4 {m}

OS:Surface,
  {0fc50b83-fc09-4d1d-823d-3db5f535a1a6}, !- Handle
  Surface 18,                             !- Name
  RoofCeiling,                            !- Surface Type
  ,                                       !- Construction Name
  {2642cd4d-0cc2-4dd7-9993-84381e98dae0}, !- Space Name
  Surface,                                !- Outside Boundary Condition
  {a258f796-585e-408d-b21b-37ba9ab5ffe2}, !- Outside Boundary Condition Object
  NoSun,                                  !- Sun Exposure
  NoWind,                                 !- Wind Exposure
  ,                                       !- View Factor to Ground
  ,                                       !- Number of Vertices
  0, 90.86, 3.8,                          !- X,Y,Z Vertex 1 {m}
  0, 0, 3.8,                              !- X,Y,Z Vertex 2 {m}
  4.56999999999999, -4.57, 3.8,           !- X,Y,Z Vertex 3 {m}
  4.56999999999999, 95.43, 3.8;           !- X,Y,Z Vertex 4 {m}

OS:Space,
  {eec875c6-a9dc-4945-a0fb-70fe1e349711}, !- Handle
  Story 0 South Perimeter Space,          !- Name
  ,                                       !- Space Type Name
  ,                                       !- Default Construction Set Name
  ,                                       !- Default Schedule Set Name
  -0,                                     !- Direction of Relative North {deg}
  0,                                      !- X Origin {m}
  0,                                      !- Y Origin {m}
  -3.8,                                   !- Z Origin {m}
  {8cb9dce0-db48-4a62-9982-3c643638b938}; !- Building Story Name

OS:Surface,
  {41324998-8313-4158-8b9d-c389d6367e95}, !- Handle
  Surface 19,                             !- Name
  Floor,                                  !- Surface Type
  ,                                       !- Construction Name
  {eec875c6-a9dc-4945-a0fb-70fe1e349711}, !- Space Name
  Ground,                                 !- Outside Boundary Condition
  ,                                       !- Outside Boundary Condition Object
  NoSun,                                  !- Sun Exposure
  NoWind,                                 !- Wind Exposure
  ,                                       !- View Factor to Ground
  ,                                       !- Number of Vertices
  100, 0, 0,                              !- X,Y,Z Vertex 1 {m}
  0, 0, 0,                                !- X,Y,Z Vertex 2 {m}
  4.57, 4.57, 0,                          !- X,Y,Z Vertex 3 {m}
  95.43, 4.57, 0;                         !- X,Y,Z Vertex 4 {m}

OS:Surface,
  {53b25446-180f-4cce-b0bb-8d715162f3f2}, !- Handle
  Surface 20,                             !- Name
  Wall,                                   !- Surface Type
  ,                                       !- Construction Name
  {eec875c6-a9dc-4945-a0fb-70fe1e349711}, !- Space Name
  Ground,                                 !- Outside Boundary Condition
  ,                                       !- Outside Boundary Condition Object
  NoSun,                                  !- Sun Exposure
  NoWind,                                 !- Wind Exposure
  ,                                       !- View Factor to Ground
  ,                                       !- Number of Vertices
  0, 0, 3.8,                              !- X,Y,Z Vertex 1 {m}
  0, 0, 0,                                !- X,Y,Z Vertex 2 {m}
  100, 0, 0,                              !- X,Y,Z Vertex 3 {m}
  100, 0, 3.8;                            !- X,Y,Z Vertex 4 {m}

OS:Surface,
  {e1bf908e-b7f3-419a-a5e5-ab3f1e869f02}, !- Handle
  Surface 21,                             !- Name
  Wall,                                   !- Surface Type
  ,                                       !- Construction Name
  {eec875c6-a9dc-4945-a0fb-70fe1e349711}, !- Space Name
  Surface,                                !- Outside Boundary Condition
  {2b71dee2-674a-4f0c-a3b6-895dd4a8e1b6}, !- Outside Boundary Condition Object
  NoSun,                                  !- Sun Exposure
  NoWind,                                 !- Wind Exposure
  ,                                       !- View Factor to Ground
  ,                                       !- Number of Vertices
  4.57, 4.57, 3.8,                        !- X,Y,Z Vertex 1 {m}
  4.57, 4.57, 0,                          !- X,Y,Z Vertex 2 {m}
  0, 0, 0,                                !- X,Y,Z Vertex 3 {m}
  0, 0, 3.8;                              !- X,Y,Z Vertex 4 {m}

OS:Surface,
  {a708ab7b-f57b-495b-848a-91aaf411113f}, !- Handle
  Surface 22,                             !- Name
  Wall,                                   !- Surface Type
  ,                                       !- Construction Name
  {eec875c6-a9dc-4945-a0fb-70fe1e349711}, !- Space Name
  Surface,                                !- Outside Boundary Condition
  {e42c446e-9c8e-4966-a98a-f4fcf3041f0d}, !- Outside Boundary Condition Object
  NoSun,                                  !- Sun Exposure
  NoWind,                                 !- Wind Exposure
  ,                                       !- View Factor to Ground
  ,                                       !- Number of Vertices
  95.43, 4.57, 3.8,                       !- X,Y,Z Vertex 1 {m}
  95.43, 4.57, 0,                         !- X,Y,Z Vertex 2 {m}
  4.57, 4.57, 0,                          !- X,Y,Z Vertex 3 {m}
  4.57, 4.57, 3.8;                        !- X,Y,Z Vertex 4 {m}

OS:Surface,
  {94069e6e-4d45-47b9-95ee-7232b0be0312}, !- Handle
  Surface 23,                             !- Name
  Wall,                                   !- Surface Type
  ,                                       !- Construction Name
  {eec875c6-a9dc-4945-a0fb-70fe1e349711}, !- Space Name
  Surface,                                !- Outside Boundary Condition
  {806996e0-b603-4ded-b838-3a6a1d34c721}, !- Outside Boundary Condition Object
  NoSun,                                  !- Sun Exposure
  NoWind,                                 !- Wind Exposure
  ,                                       !- View Factor to Ground
  ,                                       !- Number of Vertices
  100, 0, 3.8,                            !- X,Y,Z Vertex 1 {m}
  100, 0, 0,                              !- X,Y,Z Vertex 2 {m}
  95.43, 4.57, 0,                         !- X,Y,Z Vertex 3 {m}
  95.43, 4.57, 3.8;                       !- X,Y,Z Vertex 4 {m}

OS:Surface,
  {2b49b43a-d030-473c-a4dd-85afc10712de}, !- Handle
  Surface 24,                             !- Name
  RoofCeiling,                            !- Surface Type
  ,                                       !- Construction Name
  {eec875c6-a9dc-4945-a0fb-70fe1e349711}, !- Space Name
  Surface,                                !- Outside Boundary Condition
  {c7c81e76-c21d-421f-a399-5d1ba4bd4eaa}, !- Outside Boundary Condition Object
  NoSun,                                  !- Sun Exposure
  NoWind,                                 !- Wind Exposure
  ,                                       !- View Factor to Ground
  ,                                       !- Number of Vertices
  95.43, 4.57, 3.8,                       !- X,Y,Z Vertex 1 {m}
  4.57, 4.57, 3.8,                        !- X,Y,Z Vertex 2 {m}
  0, 0, 3.8,                              !- X,Y,Z Vertex 3 {m}
  100, 0, 3.8;                            !- X,Y,Z Vertex 4 {m}

OS:Space,
  {299cfc47-f14c-45d8-b7b2-4b307e92b27e}, !- Handle
  Story 0 Core Space,                     !- Name
  ,                                       !- Space Type Name
  ,                                       !- Default Construction Set Name
  ,                                       !- Default Schedule Set Name
  -0,                                     !- Direction of Relative North {deg}
  4.57,                                   !- X Origin {m}
  4.57,                                   !- Y Origin {m}
  -3.8,                                   !- Z Origin {m}
  {8cb9dce0-db48-4a62-9982-3c643638b938}; !- Building Story Name

OS:Surface,
  {a22f929e-f93e-4465-a241-14e2ed5c863a}, !- Handle
  Surface 25,                             !- Name
  Floor,                                  !- Surface Type
  ,                                       !- Construction Name
  {299cfc47-f14c-45d8-b7b2-4b307e92b27e}, !- Space Name
  Ground,                                 !- Outside Boundary Condition
  ,                                       !- Outside Boundary Condition Object
  NoSun,                                  !- Sun Exposure
  NoWind,                                 !- Wind Exposure
  ,                                       !- View Factor to Ground
  ,                                       !- Number of Vertices
  0, 0, 0,                                !- X,Y,Z Vertex 1 {m}
  0, 90.86, 0,                            !- X,Y,Z Vertex 2 {m}
  90.86, 90.86, 0,                        !- X,Y,Z Vertex 3 {m}
  90.86, 0, 0;                            !- X,Y,Z Vertex 4 {m}

OS:Surface,
  {853fbcfa-9d99-4d01-a3a0-23bd0738a910}, !- Handle
  Surface 26,                             !- Name
  Wall,                                   !- Surface Type
  ,                                       !- Construction Name
  {299cfc47-f14c-45d8-b7b2-4b307e92b27e}, !- Space Name
  Surface,                                !- Outside Boundary Condition
  {7fd9a872-5486-4838-a17e-11201ecfc4e0}, !- Outside Boundary Condition Object
  NoSun,                                  !- Sun Exposure
  NoWind,                                 !- Wind Exposure
  ,                                       !- View Factor to Ground
  ,                                       !- Number of Vertices
  0, 90.86, 3.8,                          !- X,Y,Z Vertex 1 {m}
  0, 90.86, 0,                            !- X,Y,Z Vertex 2 {m}
  0, 0, 0,                                !- X,Y,Z Vertex 3 {m}
  0, 0, 3.8;                              !- X,Y,Z Vertex 4 {m}

OS:Surface,
  {cba86ecc-ef9d-4b9d-ae34-15e5b5a562a2}, !- Handle
  Surface 27,                             !- Name
  Wall,                                   !- Surface Type
  ,                                       !- Construction Name
  {299cfc47-f14c-45d8-b7b2-4b307e92b27e}, !- Space Name
  Surface,                                !- Outside Boundary Condition
  {da78e158-1ee2-4ac3-831e-afc8062f7b07}, !- Outside Boundary Condition Object
  NoSun,                                  !- Sun Exposure
  NoWind,                                 !- Wind Exposure
  ,                                       !- View Factor to Ground
  ,                                       !- Number of Vertices
  90.86, 90.86, 3.8,                      !- X,Y,Z Vertex 1 {m}
  90.86, 90.86, 0,                        !- X,Y,Z Vertex 2 {m}
  0, 90.86, 0,                            !- X,Y,Z Vertex 3 {m}
  0, 90.86, 3.8;                          !- X,Y,Z Vertex 4 {m}

OS:Surface,
  {fe0abd65-7963-4780-a1bc-5cc49fc0ed73}, !- Handle
  Surface 28,                             !- Name
  Wall,                                   !- Surface Type
  ,                                       !- Construction Name
  {299cfc47-f14c-45d8-b7b2-4b307e92b27e}, !- Space Name
  Surface,                                !- Outside Boundary Condition
  {60aa8d05-2509-4c2c-862a-e10894c5bfb2}, !- Outside Boundary Condition Object
  NoSun,                                  !- Sun Exposure
  NoWind,                                 !- Wind Exposure
  ,                                       !- View Factor to Ground