
OS:Version,
  {917f5044-933e-4789-9b91-8177c82ac1aa}, !- Handle
  2.8.1;                                  !- Version Identifier

OS:BuildingStory,
  {bf3333b0-4138-46fc-a1f3-3008bd3f705a}, !- Handle
  Story 1,                                !- Name
  0,                                      !- Nominal Z Coordinate {m}
  3.2,                                    !- Nominal Floor to Floor Height {m}
  ,                                       !- Default Construction Set Name
  ,                                       !- Default Schedule Set Name
  ;                                       !- Group Rendering Name

OS:Space,
  {8a834d52-d6f4-447e-ab41-811f1bb63282}, !- Handle
  Story 1 West Left Perimeter Space,      !- Name
  ,                                       !- Space Type Name
  ,                                       !- Default Construction Set Name
  ,                                       !- Default Schedule Set Name
  -0,                                     !- Direction of Relative North {deg}
  0,                                      !- X Origin {m}
  0,                                      !- Y Origin {m}
  0,                                      !- Z Origin {m}
  {bf3333b0-4138-46fc-a1f3-3008bd3f705a}, !- Building Story Name
  {b95e22b5-62f5-41b3-9593-9927f66f4610}; !- Thermal Zone Name

OS:Surface,
  {1600d954-7f13-4f0e-bd9d-5f27aac7c35b}, !- Handle
  Surface 1,                              !- Name
  Floor,                                  !- Surface Type
  ,                                       !- Construction Name
  {8a834d52-d6f4-447e-ab41-811f1bb63282}, !- Space Name
  Ground,                                 !- Outside Boundary Condition
  ,                                       !- Outside Boundary Condition Object
  NoSun,                                  !- Sun Exposure
  NoWind,                                 !- Wind Exposure
  ,                                       !- View Factor to Ground
  ,                                       !- Number of Vertices
  0, 0, 0,                                !- X,Y,Z Vertex 1 {m}
  0, 113.389341902768, 0,                 !- X,Y,Z Vertex 2 {m}
  1.52333333333333, 111.866008569435, 0,  !- X,Y,Z Vertex 3 {m}
  1.52333333333333, 1.52333333333333, 0;  !- X,Y,Z Vertex 4 {m}

OS:Surface,
  {e489af8c-666b-46ff-bdd3-6f42c3f159d7}, !- Handle
  Surface 2,                              !- Name
  Wall,                                   !- Surface Type
  ,                                       !- Construction Name
  {8a834d52-d6f4-447e-ab41-811f1bb63282}, !- Space Name
  Outdoors,                               !- Outside Boundary Condition
  ,                                       !- Outside Boundary Condition Object
  SunExposed,                             !- Sun Exposure
  WindExposed,                            !- Wind Exposure
  ,                                       !- View Factor to Ground
  ,                                       !- Number of Vertices
  0, 113.389341902768, 3.2,               !- X,Y,Z Vertex 1 {m}
  0, 113.389341902768, 0,                 !- X,Y,Z Vertex 2 {m}
  0, 0, 0,                                !- X,Y,Z Vertex 3 {m}
  0, 0, 3.2;                              !- X,Y,Z Vertex 4 {m}

OS:Surface,
  {44520b96-1e5a-4b0a-9054-1ac0df584630}, !- Handle
  Surface 3,                              !- Name
  Wall,                                   !- Surface Type
  ,                                       !- Construction Name
  {8a834d52-d6f4-447e-ab41-811f1bb63282}, !- Space Name
  Surface,                                !- Outside Boundary Condition
  {74f36db8-bd6b-403c-9fe0-192fe0367483}, !- Outside Boundary Condition Object
  NoSun,                                  !- Sun Exposure
  NoWind,                                 !- Wind Exposure
  ,                                       !- View Factor to Ground
  ,                                       !- Number of Vertices
  1.52333333333333, 111.866008569435, 3.2, !- X,Y,Z Vertex 1 {m}
  1.52333333333333, 111.866008569435, 0,  !- X,Y,Z Vertex 2 {m}
  0, 113.389341902768, 0,                 !- X,Y,Z Vertex 3 {m}
  0, 113.389341902768, 3.2;               !- X,Y,Z Vertex 4 {m}

OS:Surface,
  {cd2883d7-4568-433b-b3a6-3dae0482ddae}, !- Handle
  Surface 4,                              !- Name
  Wall,                                   !- Surface Type
  ,                                       !- Construction Name
  {8a834d52-d6f4-447e-ab41-811f1bb63282}, !- Space Name
  Surface,                                !- Outside Boundary Condition
  {757e8ec6-a2f5-4ff7-a635-e84c77f802f2}, !- Outside Boundary Condition Object
  NoSun,                                  !- Sun Exposure
  NoWind,                                 !- Wind Exposure
  ,                                       !- View Factor to Ground
  ,                                       !- Number of Vertices
  1.52333333333333, 1.52333333333333, 3.2, !- X,Y,Z Vertex 1 {m}
  1.52333333333333, 1.52333333333333, 0,  !- X,Y,Z Vertex 2 {m}
  1.52333333333333, 111.866008569435, 0,  !- X,Y,Z Vertex 3 {m}
  1.52333333333333, 111.866008569435, 3.2; !- X,Y,Z Vertex 4 {m}

OS:Surface,
  {d57112a6-bd29-40cd-a5e8-ae80daee7eff}, !- Handle
  Surface 5,                              !- Name
  Wall,                                   !- Surface Type
  ,                                       !- Construction Name
  {8a834d52-d6f4-447e-ab41-811f1bb63282}, !- Space Name
  Surface,                                !- Outside Boundary Condition
  {dc47ba69-9f31-4401-82b0-9cf35fa3a333}, !- Outside Boundary Condition Object
  NoSun,                                  !- Sun Exposure
  NoWind,                                 !- Wind Exposure
  ,                                       !- View Factor to Ground
  ,                                       !- Number of Vertices
  0, 0, 3.2,                              !- X,Y,Z Vertex 1 {m}
  0, 0, 0,                                !- X,Y,Z Vertex 2 {m}
  1.52333333333333, 1.52333333333333, 0,  !- X,Y,Z Vertex 3 {m}
  1.52333333333333, 1.52333333333333, 3.2; !- X,Y,Z Vertex 4 {m}

OS:Surface,
  {401f4372-7c43-427b-a59c-7b02cd2b397f}, !- Handle
  Surface 6,                              !- Name
  RoofCeiling,                            !- Surface Type
  ,                                       !- Construction Name
  {8a834d52-d6f4-447e-ab41-811f1bb63282}, !- Space Name
  Surface,                                !- Outside Boundary Condition
  {accc9452-ba6c-4810-91bf-724d4392b569}, !- Outside Boundary Condition Object
  NoSun,                                  !- Sun Exposure
  NoWind,                                 !- Wind Exposure
  ,                                       !- View Factor to Ground
  ,                                       !- Number of Vertices
  1.52333333333333, 1.52333333333333, 3.2, !- X,Y,Z Vertex 1 {m}
  1.52333333333333, 111.866008569435, 3.2, !- X,Y,Z Vertex 2 {m}
  0, 113.389341902768, 3.2,               !- X,Y,Z Vertex 3 {m}
  0, 0, 3.2;                              !- X,Y,Z Vertex 4 {m}

OS:Space,
  {17202e5c-38fb-4c6a-b600-3c09cbcf2723}, !- Handle
  Story 1 North Left Perimeter Space,     !- Name
  ,                                       !- Space Type Name
  ,                                       !- Default Construction Set Name
  ,                                       !- Default Schedule Set Name
  -0,                                     !- Direction of Relative North {deg}
  1.52333333333333,                       !- X Origin {m}
  111.866008569435,                       !- Y Origin {m}
  0,                                      !- Z Origin {m}
  {bf3333b0-4138-46fc-a1f3-3008bd3f705a}, !- Building Story Name
  {75cac74e-eac1-49d8-bade-5d7281a33e34}; !- Thermal Zone Name

OS:Surface,
  {ffec10c3-d74d-4520-bb5a-2b911e457899}, !- Handle
  Surface 7,                              !- Name
  Floor,                                  !- Surface Type
  ,                                       !- Construction Name
  {17202e5c-38fb-4c6a-b600-3c09cbcf2723}, !- Space Name
  Ground,                                 !- Outside Boundary Condition
  ,                                       !- Outside Boundary Condition Object
  NoSun,                                  !- Sun Exposure
  NoWind,                                 !- Wind Exposure
  ,                                       !- View Factor to Ground
  ,                                       !- Number of Vertices
  -1.52333333333333, 1.52333333333314, 0, !- X,Y,Z Vertex 1 {m}
  36.2731139675894, 1.52333333333314, 0,  !- X,Y,Z Vertex 2 {m}
  34.7497806342561, 1.4210854715202e-13, 0, !- X,Y,Z Vertex 3 {m}
  -3.33066907387547e-15, 1.4210854715202e-13, 0; !- X,Y,Z Vertex 4 {m}

OS:Surface,
  {4958b1f2-6e09-4fce-ae04-1b3fdefc130d}, !- Handle
  Surface 8,                              !- Name
  Wall,                                   !- Surface Type
  ,                                       !- Construction Name
  {17202e5c-38fb-4c6a-b600-3c09cbcf2723}, !- Space Name
  Outdoors,                               !- Outside Boundary Condition
  ,                                       !- Outside Boundary Condition Object
  SunExposed,                             !- Sun Exposure
  WindExposed,                            !- Wind Exposure
  ,                                       !- View Factor to Ground
  ,                                       !- Number of Vertices
  36.2731139675894, 1.52333333333314, 3.2, !- X,Y,Z Vertex 1 {m}
  36.2731139675894, 1.52333333333314, 0,  !- X,Y,Z Vertex 2 {m}
  -1.52333333333333, 1.52333333333314, 0, !- X,Y,Z Vertex 3 {m}
  -1.52333333333333, 1.52333333333314, 3.2; !- X,Y,Z Vertex 4 {m}

OS:Surface,
  {cb347a9e-557e-494e-8371-12762c605669}, !- Handle
  Surface 9,                              !- Name
  Wall,                                   !- Surface Type
  ,                                       !- Construction Name
  {17202e5c-38fb-4c6a-b600-3c09cbcf2723}, !- Space Name
  Surface,                                !- Outside Boundary Condition
  {1d927eca-6b7c-4472-8cd8-7a10bba2ea20}, !- Outside Boundary Condition Object
  NoSun,                                  !- Sun Exposure
  NoWind,                                 !- Wind Exposure
  ,                                       !- View Factor to Ground
  ,                                       !- Number of Vertices
  34.7497806342561, 1.4210854715202e-13, 3.2, !- X,Y,Z Vertex 1 {m}
  34.7497806342561, 1.4210854715202e-13, 0, !- X,Y,Z Vertex 2 {m}
  36.2731139675894, 1.52333333333314, 0,  !- X,Y,Z Vertex 3 {m}
  36.2731139675894, 1.52333333333314, 3.2; !- X,Y,Z Vertex 4 {m}

OS:Surface,
  {09569768-a335-4511-993a-d8454b5302ca}, !- Handle
  Surface 10,                             !- Name
  Wall,                                   !- Surface Type
  ,                                       !- Construction Name
  {17202e5c-38fb-4c6a-b600-3c09cbcf2723}, !- Space Name
  Surface,                                !- Outside Boundary Condition
  {bf0f6939-3e14-4b92-beb1-d226c919162a}, !- Outside Boundary Condition Object
  NoSun,                                  !- Sun Exposure
  NoWind,                                 !- Wind Exposure
  ,                                       !- View Factor to Ground
  ,                                       !- Number of Vertices
  -3.33066907387547e-15, 1.4210854715202e-13, 3.2, !- X,Y,Z Vertex 1 {m}
  -3.33066907387547e-15, 1.4210854715202e-13, 0, !- X,Y,Z Vertex 2 {m}
  34.7497806342561, 1.4210854715202e-13, 0, !- X,Y,Z Vertex 3 {m}
  34.7497806342561, 1.4210854715202e-13, 3.2; !- X,Y,Z Vertex 4 {m}

OS:Surface,
  {74f36db8-bd6b-403c-9fe0-192fe0367483}, !- Handle
  Surface 11,                             !- Name
  Wall,                                   !- Surface Type
  ,                                       !- Construction Name
  {17202e5c-38fb-4c6a-b600-3c09cbcf2723}, !- Space Name
  Surface,                                !- Outside Boundary Condition
  {44520b96-1e5a-4b0a-9054-1ac0df584630}, !- Outside Boundary Condition Object
  NoSun,                                  !- Sun Exposure
  NoWind,                                 !- Wind Exposure
  ,                                       !- View Factor to Ground
  ,                                       !- Number of Vertices
  -1.52333333333333, 1.52333333333314, 3.2, !- X,Y,Z Vertex 1 {m}
  -1.52333333333333, 1.52333333333314, 0, !- X,Y,Z Vertex 2 {m}
  -3.33066907387547e-15, 1.4210854715202e-13, 0, !- X,Y,Z Vertex 3 {m}
  -3.33066907387547e-15, 1.4210854715202e-13, 3.2; !- X,Y,Z Vertex 4 {m}

OS:Surface,
  {54bc24da-8cae-4930-b287-8ff4a8dae62d}, !- Handle
  Surface 12,                             !- Name
  RoofCeiling,                            !- Surface Type
  ,                                       !- Construction Name
  {17202e5c-38fb-4c6a-b600-3c09cbcf2723}, !- Space Name
  Surface,                                !- Outside Boundary Condition
  {0befa68e-722a-4bdd-9ddf-837b9fac2e68}, !- Outside Boundary Condition Object
  NoSun,                                  !- Sun Exposure
  NoWind,                                 !- Wind Exposure
  ,                                       !- View Factor to Ground
  ,                                       !- Number of Vertices
  -3.33066907387547e-15, 1.4210854715202e-13, 3.2, !- X,Y,Z Vertex 1 {m}
  34.7497806342561, 1.4210854715202e-13, 3.2, !- X,Y,Z Vertex 2 {m}
  36.2731139675894, 1.52333333333314, 3.2, !- X,Y,Z Vertex 3 {m}
  -1.52333333333333, 1.52333333333314, 3.2; !- X,Y,Z Vertex 4 {m}

OS:Space,
  {94e361cd-11c9-41aa-919d-0200186d1d31}, !- Handle
  Story 1 East Left Perimeter Space,      !- Name
  ,                                       !- Space Type Name
  ,                                       !- Default Construction Set Name
  ,                                       !- Default Schedule Set Name
  -0,                                     !- Direction of Relative North {deg}
  36.2731139675894,                       !- X Origin {m}
  36.2731139675894,                       !- Y Origin {m}
  0,                                      !- Z Origin {m}
  {bf3333b0-4138-46fc-a1f3-3008bd3f705a}, !- Building Story Name
  {65585a6b-e975-4d1f-88ad-4567c82fc13e}; !- Thermal Zone Name

OS:Surface,
  {da4523a0-07b0-49bf-ba45-ce469cfc9f95}, !- Handle
  Surface 13,                             !- Name
  Floor,                                  !- Surface Type
  ,                                       !- Construction Name
  {94e361cd-11c9-41aa-919d-0200186d1d31}, !- Space Name
  Ground,                                 !- Outside Boundary Condition
  ,                                       !- Outside Boundary Condition Object
  NoSun,                                  !- Sun Exposure
  NoWind,                                 !- Wind Exposure
  ,                                       !- View Factor to Ground
  ,                                       !- Number of Vertices
  1.52333333333331, 77.1162279351786, 0,  !- X,Y,Z Vertex 1 {m}
  1.52333333333331, 1.52333333333331, 0,  !- X,Y,Z Vertex 2 {m}
  7.105427357601e-15, 1.4210854715202e-14, 0, !- X,Y,Z Vertex 3 {m}
  7.105427357601e-15, 75.5928946018456, 0; !- X,Y,Z Vertex 4 {m}

OS:Surface,
  {66602374-a131-46a5-ae73-f5a03059c903}, !- Handle
  Surface 14,                             !- Name
  Wall,                                   !- Surface Type
  ,                                       !- Construction Name
  {94e361cd-11c9-41aa-919d-0200186d1d31}, !- Space Name
  Outdoors,                               !- Outside Boundary Condition
  ,                                       !- Outside Boundary Condition Object
  SunExposed,                             !- Sun Exposure
  WindExposed,                            !- Wind Exposure
  ,                                       !- View Factor to Ground
  ,                                       !- Number of Vertices
  1.52333333333331, 1.52333333333331, 3.2, !- X,Y,Z Vertex 1 {m}
  1.52333333333331, 1.52333333333331, 0,  !- X,Y,Z Vertex 2 {m}
  1.52333333333331, 77.1162279351786, 0,  !- X,Y,Z Vertex 3 {m}
  1.52333333333331, 77.1162279351786, 3.2; !- X,Y,Z Vertex 4 {m}

OS:Surface,
  {05854549-b897-4dbb-b4a7-b8ea74ea2233}, !- Handle
  Surface 15,                             !- Name
  Wall,                                   !- Surface Type
  ,                                       !- Construction Name
  {94e361cd-11c9-41aa-919d-0200186d1d31}, !- Space Name
  Surface,                                !- Outside Boundary Condition
  {85685098-2254-4f43-a93f-9db73e480270}, !- Outside Boundary Condition Object
  NoSun,                                  !- Sun Exposure
  NoWind,                                 !- Wind Exposure
  ,                                       !- View Factor to Ground
  ,                                       !- Number of Vertices
  7.105427357601e-15, 1.4210854715202e-14, 3.2, !- X,Y,Z Vertex 1 {m}
  7.105427357601e-15, 1.4210854715202e-14, 0, !- X,Y,Z Vertex 2 {m}
  1.52333333333331, 1.52333333333331, 0,  !- X,Y,Z Vertex 3 {m}
  1.52333333333331, 1.52333333333331, 3.2; !- X,Y,Z Vertex 4 {m}

OS:Surface,
  {8263c67d-0157-4af8-a20a-5a908a88fdd0}, !- Handle
  Surface 16,                             !- Name
  Wall,                                   !- Surface Type
  ,                                       !- Construction Name
  {94e361cd-11c9-41aa-919d-0200186d1d31}, !- Space Name
  Surface,                                !- Outside Boundary Condition
  {94fe2b8a-460a-46e6-8f37-5d345fade2db}, !- Outside Boundary Condition Object
  NoSun,                                  !- Sun Exposure
  NoWind,                                 !- Wind Exposure
  ,                                       !- View Factor to Ground
  ,                                       !- Number of Vertices
  7.105427357601e-15, 75.5928946018456, 3.2, !- X,Y,Z Vertex 1 {m}
  7.105427357601e-15, 75.5928946018456, 0, !- X,Y,Z Vertex 2 {m}
  7.105427357601e-15, 1.4210854715202e-14, 0, !- X,Y,Z Vertex 3 {m}
  7.105427357601e-15, 1.4210854715202e-14, 3.2; !- X,Y,Z Vertex 4 {m}

OS:Surface,
  {1d927eca-6b7c-4472-8cd8-7a10bba2ea20}, !- Handle
  Surface 17,                             !- Name
  Wall,                                   !- Surface Type
  ,                                       !- Construction Name
  {94e361cd-11c9-41aa-919d-0200186d1d31}, !- Space Name
  Surface,                                !- Outside Boundary Condition
  {cb347a9e-557e-494e-8371-12762c605669}, !- Outside Boundary Condition Object
  NoSun,                                  !- Sun Exposure
  NoWind,                                 !- Wind Exposure
  ,                                       !- View Factor to Ground
  ,                                       !- Number of Vertices
  1.52333333333331, 77.1162279351786, 3.2, !- X,Y,Z Vertex 1 {m}
  1.52333333333331, 77.1162279351786, 0,  !- X,Y,Z Vertex 2 {m}
  7.105427357601e-15, 75.5928946018456, 0, !- X,Y,Z Vertex 3 {m}
  7.105427357601e-15, 75.5928946018456, 3.2; !- X,Y,Z Vertex 4 {m}

OS:Surface,
  {6cb6b60b-a461-43f5-a741-8c78db8802f0}, !- Handle
  Surface 18,                             !- Name
  RoofCeiling,                            !- Surface Type
  ,                                       !- Construction Name
  {94e361cd-11c9-41aa-919d-0200186d1d31}, !- Space Name
  Surface,                                !- Outside Boundary Condition
  {03244a85-4f53-4e4e-b56e-78544082fae8}, !- Outside Boundary Condition Object
  NoSun,                                  !- Sun Exposure
  NoWind,                                 !- Wind Exposure
  ,                                       !- View Factor to Ground
  ,                                       !- Number of Vertices
  7.105427357601e-15, 75.5928946018456, 3.2, !- X,Y,Z Vertex 1 {m}
  7.105427357601e-15, 1.4210854715202e-14, 3.2, !- X,Y,Z Vertex 2 {m}
  1.52333333333331, 1.52333333333331, 3.2, !- X,Y,Z Vertex 3 {m}
  1.52333333333331, 77.1162279351786, 3.2; !- X,Y,Z Vertex 4 {m}

OS:Space,
  {20513781-4dab-4f9c-b3ca-308cf853650a}, !- Handle
  Story 1 North Lower Perimeter Space,    !- Name
  ,                                       !- Space Type Name
  ,                                       !- Default Construction Set Name
  ,                                       !- Default Schedule Set Name
  -0,                                     !- Direction of Relative North {deg}
  36.2731139675894,                       !- X Origin {m}
  36.2731139675894,                       !- Y Origin {m}
  0,                                      !- Z Origin {m}
  {bf3333b0-4138-46fc-a1f3-3008bd3f705a}, !- Building Story Name
  {5d947b14-80b9-4d7a-90b8-4d34fa84200a}; !- Thermal Zone Name

OS:Surface,
  {334af630-4893-457b-a7d8-da6ecb41d6be}, !- Handle
  Surface 19,                             !- Name
  Floor,                                  !- Surface Type
  ,                                       !- Construction Name
  {20513781-4dab-4f9c-b3ca-308cf853650a}, !- Space Name
  Ground,                                 !- Outside Boundary Condition
  ,                                       !- Outside Boundary Condition Object
  NoSun,                                  !- Sun Exposure
  NoWind,                                 !- Wind Exposure
  ,                                       !- View Factor to Ground
  ,                                       !- Number of Vertices
  1.52333333333331, 1.52333333333331, 0,  !- X,Y,Z Vertex 1 {m}
  39.319780634256, 1.52333333333331, 0,   !- X,Y,Z Vertex 2 {m}
  40.8431139675894, 1.4210854715202e-14, 0, !- X,Y,Z Vertex 3 {m}
  7.105427357601e-15, 1.4210854715202e-14, 0; !- X,Y,Z Vertex 4 {m}

OS:Surface,
  {00e9fdec-f2ab-4ccf-82d9-0f9e9cc9a6be}, !- Handle
  Surface 20,                             !- Name
  Wall,                                   !- Surface Type
  ,                                       !- Construction Name
  {20513781-4dab-4f9c-b3ca-308cf853650a}, !- Space Name
  Outdoors,                               !- Outside Boundary Condition
  ,                                       !- Outside Boundary Condition Object
  SunExposed,                             !- Sun Exposure
  WindExposed,                            !- Wind Exposure
  ,                                       !- View Factor to Ground
  ,                                       !- Number of Vertices
  39.319780634256, 1.52333333333331, 3.2, !- X,Y,Z Vertex 1 {m}
  39.319780634256, 1.52333333333331, 0,   !- X,Y,Z Vertex 2 {m}
  1.52333333333331, 1.52333333333331, 0,  !- X,Y,Z Vertex 3 {m}
  1.52333333333331, 1.52333333333331, 3.2; !- X,Y,Z Vertex 4 {m}

OS:Surface,
  {1344180c-a7dc-4ad5-b5d1-46e436433783}, !- Handle
  Surface 21,                             !- Name
  Wall,                                   !- Surface Type
  ,                                       !- Construction Name
  {20513781-4dab-4f9c-b3ca-308cf853650a}, !- Space Name
  Surface,                                !- Outside Boundary Condition
  {3d0ce10a-4865-4bba-83a3-01186ecbc2c6}, !- Outside Boundary Condition Object
  NoSun,                                  !- Sun Exposure
  NoWind,                                 !- Wind Exposure
  ,                                       !- View Factor to Ground
  ,                                       !- Number of Vertices
  40.8431139675894, 1.4210854715202e-14, 3.2, !- X,Y,Z Vertex 1 {m}
  40.8431139675894, 1.4210854715202e-14, 0, !- X,Y,Z Vertex 2 {m}
  39.319780634256, 1.52333333333331, 0,   !- X,Y,Z Vertex 3 {m}
  39.319780634256, 1.52333333333331, 3.2; !- X,Y,Z Vertex 4 {m}

OS:Surface,
  {40541613-0d38-453d-a1da-6c86e6a206b8}, !- Handle
  Surface 22,                             !- Name
  Wall,                                   !- Surface Type
  ,                                       !- Construction Name
  {20513781-4dab-4f9c-b3ca-308cf853650a}, !- Space Name
  Surface,                                !- Outside Boundary Condition
  {e2c86465-ab89-45f1-8060-3ce9e564da61}, !- Outside Boundary Condition Object
  NoSun,                                  !- Sun Exposure
  NoWind,                                 !- Wind Exposure
  ,                                       !- View Factor to Ground
  ,                                       !- Number of Vertices
  7.105427357601e-15, 1.4210854715202e-14, 3.2, !- X,Y,Z Vertex 1 {m}
  7.105427357601e-15, 1.4210854715202e-14, 0, !- X,Y,Z Vertex 2 {m}
  40.8431139675894, 1.4210854715202e-14, 0, !- X,Y,Z Vertex 3 {m}
  40.8431139675894, 1.4210854715202e-14, 3.2; !- X,Y,Z Vertex 4 {m}

OS:Surface,
  {85685098-2254-4f43-a93f-9db73e480270}, !- Handle
  Surface 23,                             !- Name
  Wall,                                   !- Surface Type
  ,                                       !- Construction Name
  {20513781-4dab-4f9c-b3ca-308cf853650a}, !- Space Name
  Surface,                                !- Outside Boundary Condition
  {05854549-b897-4dbb-b4a7-b8ea74ea2233}, !- Outside Boundary Condition Object
  NoSun,                                  !- Sun Exposure
  NoWind,                                 !- Wind Exposure
  ,                                       !- View Factor to Ground
  ,                                       !- Number of Vertices
  1.52333333333331, 1.52333333333331, 3.2, !- X,Y,Z Vertex 1 {m}
  1.52333333333331, 1.52333333333331, 0,  !- X,Y,Z Vertex 2 {m}
  7.105427357601e-15, 1.4210854715202e-14, 0, !- X,Y,Z Vertex 3 {m}
  7.105427357601e-15, 1.4210854715202e-14, 3.2; !- X,Y,Z Vertex 4 {m}

OS:Surface,
  {cb959dba-524a-42fb-9dc3-82d34ddf1665}, !- Handle
  Surface 24,                             !- Name
  RoofCeiling,                            !- Surface Type
  ,                                       !- Construction Name
  {20513781-4dab-4f9c-b3ca-308cf853650a}, !- Space Name
  Surface,                                !- Outside Boundary Condition
  {680ad687-a143-4234-8fbd-c2dbbc44f82d}, !- Outside Boundary Condition Object
  NoSun,                                  !- Sun Exposure
  NoWind,                                 !- Wind Exposure
  ,                                       !- View Factor to Ground
  ,                                       !- Number of Vertices
  7.105427357601e-15, 1.4210854715202e-14, 3.2, !- X,Y,Z Vertex 1 {m}
  40.8431139675894, 1.4210854715202e-14, 3.2, !- X,Y,Z Vertex 2 {m}
  39.319780634256, 1.52333333333331, 3.2, !- X,Y,Z Vertex 3 {m}
  1.52333333333331, 1.52333333333331, 3.2; !- X,Y,Z Vertex 4 {m}

OS:Space,
  {db034533-dca5-4437-a62c-66e868127f13}, !- Handle
  Story 1 West Right Perimeter Space,     !- Name
  ,                                       !- Space Type Name
  ,                                       !- Default Construction Set Name
  ,                                       !- Default Schedule Set Name
  -0,                                     !- Direction of Relative North {deg}
  75.5928946018454,                       !- X Origin {m}
  37.7964473009227,                       !- Y Origin {m}
  0,                                      !- Z Origin {m}
  {bf3333b0-4138-46fc-a1f3-3008bd3f705a}, !- Building Story Name
  {1ac5c4ec-7e83-4a1b-987d-5499170df0af}; !- Thermal Zone Name

OS:Surface,
  {4882bf2b-8b71-4739-86f0-72642781658d}, !- Handle
  Surface 25,                             !- Name
  Floor,                                  !- Surface Type
  ,                                       !- Construction Name
  {db034533-dca5-4437-a62c-66e868127f13}, !- Space Name
  Ground,                                 !- Outside Boundary Condition
  ,                                       !- Outside Boundary Condition Object
  NoSun,                                  !- Sun Exposure
  NoWind,                                 !- Wind Exposure
  ,                                       !- View Factor to Ground
  ,                                       !- Number of Vertices
  -4.2632564145606e-14, -2.1316282072803e-14, 0, !- X,Y,Z Vertex 1 {m}
  -4.2632564145606e-14, 75.5928946018453, 0, !- X,Y,Z Vertex 2 {m}
  1.52333333333335, 74.0695612685123, 0,  !- X,Y,Z Vertex 3 {m}
  1.52333333333335, -1.52333333333332, 0; !- X,Y,Z Vertex 4 {m}

OS:Surface,
  {c7d58dd3-c9b3-4e53-8231-af4fb5b6424b}, !- Handle
  Surface 26,                             !- Name
  Wall,                                   !- Surface Type
  ,                                       !- Construction Name
  {db034533-dca5-4437-a62c-66e868127f13}, !- Space Name
  Outdoors,                               !- Outside Boundary Condition
  ,                                       !- Outside Boundary Condition Object
  SunExposed,                             !- Sun Exposure
  WindExposed,                            !- Wind Exposure
  ,                                       !- View Factor to Ground
  ,                                       !- Number of Vertices
  -4.2632564145606e-14, 75.5928946018453, 3.2, !- X,Y,Z Vertex 1 {m}
  -4.2632564145606e-14, 75.5928946018453, 0, !- X,Y,Z Vertex 2 {m}
  -4.2632564145606e-14, -2.1316282072803e-14, 0, !- X,Y,Z Vertex 3 {m}
  -4.2632564145606e-14, -2.1316282072803e-14, 3.2; !- X,Y,Z Vertex 4 {m}

OS:Surface,
  {391c1133-ea64-47e8-bb45-14d110ec76fb}, !- Handle
  Surface 27,                             !- Name
  Wall,                                   !- Surface Type
  ,                                       !- Construction Name
  {db034533-dca5-4437-a62c-66e868127f13}, !- Space Name
  Surface,                                !- Outside Boundary Condition
  {99f968d8-630b-413b-a133-08d82cdfc0a2}, !- Outside Boundary Condition Object
  NoSun,                                  !- Sun Exposure
  NoWind,                                 !- Wind Exposure
  ,                                       !- View Factor to Ground
  ,                                       !- Number of Vertices
  1.52333333333335, 74.0695612685123, 3.2, !- X,Y,Z Vertex 1 {m}
  1.52333333333335, 74.0695612685123, 0,  !- X,Y,Z Vertex 2 {m}
  -4.2632564145606e-14, 75.5928946018453, 0, !- X,Y,Z Vertex 3 {m}
  -4.2632564145606e-14, 75.5928946018453, 3.2; !- X,Y,Z Vertex 4 {m}

OS:Surface,
  {1268faf0-bf83-4f3e-8ede-82191c9b5728}, !- Handle