
OS:Version,
  {20985c09-0bb5-480a-8642-d7a63e20610a}, !- Handle
  2.6.0;                                  !- Version Identifier

OS:BuildingStory,
  {f12066ce-4f30-40a8-8eca-f23b0e97c4f0}, !- Handle
  Story 1,                                !- Name
  0,                                      !- Nominal Z Coordinate {m}
  3.2,                                    !- Nominal Floor to Floor Height {m}
  ,                                       !- Default Construction Set Name
  ,                                       !- Default Schedule Set Name
  ;                                       !- Group Rendering Name

OS:Space,
  {17c74491-223b-4dea-8234-38c735e1b6ae}, !- Handle
  Story 1 West Left Perimeter Space,      !- Name
  ,                                       !- Space Type Name
  ,                                       !- Default Construction Set Name
  ,                                       !- Default Schedule Set Name
  -0,                                     !- Direction of Relative North {deg}
  0,                                      !- X Origin {m}
  0,                                      !- Y Origin {m}
  0,                                      !- Z Origin {m}
  {f12066ce-4f30-40a8-8eca-f23b0e97c4f0}, !- Building Story Name
  {8292cc1e-60f7-4fc2-878b-a59b3959db02}; !- Thermal Zone Name

OS:Surface,
  {207fb446-1881-4c32-b548-8950a326fc5c}, !- Handle
  Surface 1,                              !- Name
  Floor,                                  !- Surface Type
  ,                                       !- Construction Name
  {17c74491-223b-4dea-8234-38c735e1b6ae}, !- Space Name
  Ground,                                 !- Outside Boundary Condition
  ,                                       !- Outside Boundary Condition Object
  NoSun,                                  !- Sun Exposure
  NoWind,                                 !- Wind Exposure
  ,                                       !- View Factor to Ground
  ,                                       !- Number of Vertices
  0, 0, 0,                                !- X,Y,Z Vertex 1 {m}
  0, 113.389341902768, 0,                 !- X,Y,Z Vertex 2 {m}
  1.52333333333333, 111.866008569435, 0,  !- X,Y,Z Vertex 3 {m}
  1.52333333333333, 1.52333333333333, 0;  !- X,Y,Z Vertex 4 {m}

OS:Surface,
  {3d49713a-f495-41a7-bded-8577e108f983}, !- Handle
  Surface 2,                              !- Name
  Wall,                                   !- Surface Type
  ,                                       !- Construction Name
  {17c74491-223b-4dea-8234-38c735e1b6ae}, !- Space Name
  Outdoors,                               !- Outside Boundary Condition
  ,                                       !- Outside Boundary Condition Object
  SunExposed,                             !- Sun Exposure
  WindExposed,                            !- Wind Exposure
  ,                                       !- View Factor to Ground
  ,                                       !- Number of Vertices
  0, 113.389341902768, 3.2,               !- X,Y,Z Vertex 1 {m}
  0, 113.389341902768, 0,                 !- X,Y,Z Vertex 2 {m}
  0, 0, 0,                                !- X,Y,Z Vertex 3 {m}
  0, 0, 3.2;                              !- X,Y,Z Vertex 4 {m}

OS:Surface,
  {5853c087-93d6-46cd-b128-3b0754f47e8a}, !- Handle
  Surface 3,                              !- Name
  Wall,                                   !- Surface Type
  ,                                       !- Construction Name
  {17c74491-223b-4dea-8234-38c735e1b6ae}, !- Space Name
  Surface,                                !- Outside Boundary Condition
  {c4f837f0-f692-452d-941d-b021b1fbf5b1}, !- Outside Boundary Condition Object
  NoSun,                                  !- Sun Exposure
  NoWind,                                 !- Wind Exposure
  ,                                       !- View Factor to Ground
  ,                                       !- Number of Vertices
  1.52333333333333, 111.866008569435, 3.2, !- X,Y,Z Vertex 1 {m}
  1.52333333333333, 111.866008569435, 0,  !- X,Y,Z Vertex 2 {m}
  0, 113.389341902768, 0,                 !- X,Y,Z Vertex 3 {m}
  0, 113.389341902768, 3.2;               !- X,Y,Z Vertex 4 {m}

OS:Surface,
  {635f4e18-1b08-4efc-9840-a08bcd3cd472}, !- Handle
  Surface 4,                              !- Name
  Wall,                                   !- Surface Type
  ,                                       !- Construction Name
  {17c74491-223b-4dea-8234-38c735e1b6ae}, !- Space Name
  Surface,                                !- Outside Boundary Condition
  {cfe5761a-e9a9-4588-b382-472e8e366b5e}, !- Outside Boundary Condition Object
  NoSun,                                  !- Sun Exposure
  NoWind,                                 !- Wind Exposure
  ,                                       !- View Factor to Ground
  ,                                       !- Number of Vertices
  1.52333333333333, 1.52333333333333, 3.2, !- X,Y,Z Vertex 1 {m}
  1.52333333333333, 1.52333333333333, 0,  !- X,Y,Z Vertex 2 {m}
  1.52333333333333, 111.866008569435, 0,  !- X,Y,Z Vertex 3 {m}
  1.52333333333333, 111.866008569435, 3.2; !- X,Y,Z Vertex 4 {m}

OS:Surface,
  {d3bf0a3d-71b3-4b66-9bf6-43a71f159c2b}, !- Handle
  Surface 5,                              !- Name
  Wall,                                   !- Surface Type
  ,                                       !- Construction Name
  {17c74491-223b-4dea-8234-38c735e1b6ae}, !- Space Name
  Surface,                                !- Outside Boundary Condition
  {227b5758-b955-482b-8504-aeda3d6fcc46}, !- Outside Boundary Condition Object
  NoSun,                                  !- Sun Exposure
  NoWind,                                 !- Wind Exposure
  ,                                       !- View Factor to Ground
  ,                                       !- Number of Vertices
  0, 0, 3.2,                              !- X,Y,Z Vertex 1 {m}
  0, 0, 0,                                !- X,Y,Z Vertex 2 {m}
  1.52333333333333, 1.52333333333333, 0,  !- X,Y,Z Vertex 3 {m}
  1.52333333333333, 1.52333333333333, 3.2; !- X,Y,Z Vertex 4 {m}

OS:Surface,
  {95bcbaf9-03f7-49ed-adec-dd89a2dec29c}, !- Handle
  Surface 6,                              !- Name
  RoofCeiling,                            !- Surface Type
  ,                                       !- Construction Name
  {17c74491-223b-4dea-8234-38c735e1b6ae}, !- Space Name
  Surface,                                !- Outside Boundary Condition
  {ffebdaab-b004-4bf2-8bf7-6aed5f516400}, !- Outside Boundary Condition Object
  NoSun,                                  !- Sun Exposure
  NoWind,                                 !- Wind Exposure
  ,                                       !- View Factor to Ground
  ,                                       !- Number of Vertices
  1.52333333333333, 1.52333333333333, 3.2, !- X,Y,Z Vertex 1 {m}
  1.52333333333333, 111.866008569435, 3.2, !- X,Y,Z Vertex 2 {m}
  0, 113.389341902768, 3.2,               !- X,Y,Z Vertex 3 {m}
  0, 0, 3.2;                              !- X,Y,Z Vertex 4 {m}

OS:Space,
  {f238ef94-a47f-47e1-946e-3d069675110d}, !- Handle
  Story 1 North Left Perimeter Space,     !- Name
  ,                                       !- Space Type Name
  ,                                       !- Default Construction Set Name
  ,                                       !- Default Schedule Set Name
  -0,                                     !- Direction of Relative North {deg}
  1.52333333333333,                       !- X Origin {m}
  111.866008569435,                       !- Y Origin {m}
  0,                                      !- Z Origin {m}
  {f12066ce-4f30-40a8-8eca-f23b0e97c4f0}, !- Building Story Name
  {d542cc5b-f8ca-4404-9a2c-bac4828d7b82}; !- Thermal Zone Name

OS:Surface,
  {c5882e51-8a4f-42e5-ad01-101e91b42697}, !- Handle
  Surface 7,                              !- Name
  Floor,                                  !- Surface Type
  ,                                       !- Construction Name
  {f238ef94-a47f-47e1-946e-3d069675110d}, !- Space Name
  Ground,                                 !- Outside Boundary Condition
  ,                                       !- Outside Boundary Condition Object
  NoSun,                                  !- Sun Exposure
  NoWind,                                 !- Wind Exposure
  ,                                       !- View Factor to Ground
  ,                                       !- Number of Vertices
  -1.52333333333333, 1.52333333333314, 0, !- X,Y,Z Vertex 1 {m}
  36.2731139675894, 1.52333333333314, 0,  !- X,Y,Z Vertex 2 {m}
  34.7497806342561, 1.4210854715202e-13, 0, !- X,Y,Z Vertex 3 {m}
  -3.33066907387547e-15, 1.4210854715202e-13, 0; !- X,Y,Z Vertex 4 {m}

OS:Surface,
  {2d47340c-6193-4ab3-9270-5f3b941803ca}, !- Handle
  Surface 8,                              !- Name
  Wall,                                   !- Surface Type
  ,                                       !- Construction Name
  {f238ef94-a47f-47e1-946e-3d069675110d}, !- Space Name
  Outdoors,                               !- Outside Boundary Condition
  ,                                       !- Outside Boundary Condition Object
  SunExposed,                             !- Sun Exposure
  WindExposed,                            !- Wind Exposure
  ,                                       !- View Factor to Ground
  ,                                       !- Number of Vertices
  36.2731139675894, 1.52333333333314, 3.2, !- X,Y,Z Vertex 1 {m}
  36.2731139675894, 1.52333333333314, 0,  !- X,Y,Z Vertex 2 {m}
  -1.52333333333333, 1.52333333333314, 0, !- X,Y,Z Vertex 3 {m}
  -1.52333333333333, 1.52333333333314, 3.2; !- X,Y,Z Vertex 4 {m}

OS:Surface,
  {a14f1dd7-0cd5-4342-8310-9f7514f5c546}, !- Handle
  Surface 9,                              !- Name
  Wall,                                   !- Surface Type
  ,                                       !- Construction Name
  {f238ef94-a47f-47e1-946e-3d069675110d}, !- Space Name
  Surface,                                !- Outside Boundary Condition
  {92e61f2e-0629-4e55-865e-dcf3835d77f2}, !- Outside Boundary Condition Object
  NoSun,                                  !- Sun Exposure
  NoWind,                                 !- Wind Exposure
  ,                                       !- View Factor to Ground
  ,                                       !- Number of Vertices
  34.7497806342561, 1.4210854715202e-13, 3.2, !- X,Y,Z Vertex 1 {m}
  34.7497806342561, 1.4210854715202e-13, 0, !- X,Y,Z Vertex 2 {m}
  36.2731139675894, 1.52333333333314, 0,  !- X,Y,Z Vertex 3 {m}
  36.2731139675894, 1.52333333333314, 3.2; !- X,Y,Z Vertex 4 {m}

OS:Surface,
  {9827ba7c-3fb9-4296-be51-4c5a9be37c16}, !- Handle
  Surface 10,                             !- Name
  Wall,                                   !- Surface Type
  ,                                       !- Construction Name
  {f238ef94-a47f-47e1-946e-3d069675110d}, !- Space Name
  Surface,                                !- Outside Boundary Condition
  {81b0721e-039f-4b6f-a85a-7b1efd5d97c4}, !- Outside Boundary Condition Object
  NoSun,                                  !- Sun Exposure
  NoWind,                                 !- Wind Exposure
  ,                                       !- View Factor to Ground
  ,                                       !- Number of Vertices
  -3.33066907387547e-15, 1.4210854715202e-13, 3.2, !- X,Y,Z Vertex 1 {m}
  -3.33066907387547e-15, 1.4210854715202e-13, 0, !- X,Y,Z Vertex 2 {m}
  34.7497806342561, 1.4210854715202e-13, 0, !- X,Y,Z Vertex 3 {m}
  34.7497806342561, 1.4210854715202e-13, 3.2; !- X,Y,Z Vertex 4 {m}

OS:Surface,
  {c4f837f0-f692-452d-941d-b021b1fbf5b1}, !- Handle
  Surface 11,                             !- Name
  Wall,                                   !- Surface Type
  ,                                       !- Construction Name
  {f238ef94-a47f-47e1-946e-3d069675110d}, !- Space Name
  Surface,                                !- Outside Boundary Condition
  {5853c087-93d6-46cd-b128-3b0754f47e8a}, !- Outside Boundary Condition Object
  NoSun,                                  !- Sun Exposure
  NoWind,                                 !- Wind Exposure
  ,                                       !- View Factor to Ground
  ,                                       !- Number of Vertices
  -1.52333333333333, 1.52333333333314, 3.2, !- X,Y,Z Vertex 1 {m}
  -1.52333333333333, 1.52333333333314, 0, !- X,Y,Z Vertex 2 {m}
  -3.33066907387547e-15, 1.4210854715202e-13, 0, !- X,Y,Z Vertex 3 {m}
  -3.33066907387547e-15, 1.4210854715202e-13, 3.2; !- X,Y,Z Vertex 4 {m}

OS:Surface,
  {c09d9f6f-5d5f-49ac-a965-9a6a85b6afd7}, !- Handle
  Surface 12,                             !- Name
  RoofCeiling,                            !- Surface Type
  ,                                       !- Construction Name
  {f238ef94-a47f-47e1-946e-3d069675110d}, !- Space Name
  Surface,                                !- Outside Boundary Condition
  {c7b08d10-2b02-4732-97cb-debe530a20a3}, !- Outside Boundary Condition Object
  NoSun,                                  !- Sun Exposure
  NoWind,                                 !- Wind Exposure
  ,                                       !- View Factor to Ground
  ,                                       !- Number of Vertices
  -3.33066907387547e-15, 1.4210854715202e-13, 3.2, !- X,Y,Z Vertex 1 {m}
  34.7497806342561, 1.4210854715202e-13, 3.2, !- X,Y,Z Vertex 2 {m}
  36.2731139675894, 1.52333333333314, 3.2, !- X,Y,Z Vertex 3 {m}
  -1.52333333333333, 1.52333333333314, 3.2; !- X,Y,Z Vertex 4 {m}

OS:Space,
  {65ecde57-c482-4d45-b548-d26d8efaa7f9}, !- Handle
  Story 1 East Left Perimeter Space,      !- Name
  ,                                       !- Space Type Name
  ,                                       !- Default Construction Set Name
  ,                                       !- Default Schedule Set Name
  -0,                                     !- Direction of Relative North {deg}
  36.2731139675894,                       !- X Origin {m}
  36.2731139675894,                       !- Y Origin {m}
  0,                                      !- Z Origin {m}
  {f12066ce-4f30-40a8-8eca-f23b0e97c4f0}, !- Building Story Name
  {9174d213-61db-4166-8aca-b7267e3ce02b}; !- Thermal Zone Name

OS:Surface,
  {3c042d15-c601-44df-b8d5-890c503babf1}, !- Handle
  Surface 13,                             !- Name
  Floor,                                  !- Surface Type
  ,                                       !- Construction Name
  {65ecde57-c482-4d45-b548-d26d8efaa7f9}, !- Space Name
  Ground,                                 !- Outside Boundary Condition
  ,                                       !- Outside Boundary Condition Object
  NoSun,                                  !- Sun Exposure
  NoWind,                                 !- Wind Exposure
  ,                                       !- View Factor to Ground
  ,                                       !- Number of Vertices
  1.52333333333331, 77.1162279351786, 0,  !- X,Y,Z Vertex 1 {m}
  1.52333333333331, 1.52333333333331, 0,  !- X,Y,Z Vertex 2 {m}
  7.105427357601e-15, 1.4210854715202e-14, 0, !- X,Y,Z Vertex 3 {m}
  7.105427357601e-15, 75.5928946018456, 0; !- X,Y,Z Vertex 4 {m}

OS:Surface,
  {5cdf1920-1e19-4f83-8bf0-2537ef4d3fef}, !- Handle
  Surface 14,                             !- Name
  Wall,                                   !- Surface Type
  ,                                       !- Construction Name
  {65ecde57-c482-4d45-b548-d26d8efaa7f9}, !- Space Name
  Outdoors,                               !- Outside Boundary Condition
  ,                                       !- Outside Boundary Condition Object
  SunExposed,                             !- Sun Exposure
  WindExposed,                            !- Wind Exposure
  ,                                       !- View Factor to Ground
  ,                                       !- Number of Vertices
  1.52333333333331, 1.52333333333331, 3.2, !- X,Y,Z Vertex 1 {m}
  1.52333333333331, 1.52333333333331, 0,  !- X,Y,Z Vertex 2 {m}
  1.52333333333331, 77.1162279351786, 0,  !- X,Y,Z Vertex 3 {m}
  1.52333333333331, 77.1162279351786, 3.2; !- X,Y,Z Vertex 4 {m}

OS:Surface,
  {12a63c13-b83f-4a5f-ba0e-164fb9664033}, !- Handle
  Surface 15,                             !- Name
  Wall,                                   !- Surface Type
  ,                                       !- Construction Name
  {65ecde57-c482-4d45-b548-d26d8efaa7f9}, !- Space Name
  Surface,                                !- Outside Boundary Condition
  {771ee254-f3fd-4bac-ac9c-40d6a5b62f35}, !- Outside Boundary Condition Object
  NoSun,                                  !- Sun Exposure
  NoWind,                                 !- Wind Exposure
  ,                                       !- View Factor to Ground
  ,                                       !- Number of Vertices
  7.105427357601e-15, 1.4210854715202e-14, 3.2, !- X,Y,Z Vertex 1 {m}
  7.105427357601e-15, 1.4210854715202e-14, 0, !- X,Y,Z Vertex 2 {m}
  1.52333333333331, 1.52333333333331, 0,  !- X,Y,Z Vertex 3 {m}
  1.52333333333331, 1.52333333333331, 3.2; !- X,Y,Z Vertex 4 {m}

OS:Surface,
  {d3fe3e28-f53e-4c12-b79c-c25fa1063b36}, !- Handle
  Surface 16,                             !- Name
  Wall,                                   !- Surface Type
  ,                                       !- Construction Name
  {65ecde57-c482-4d45-b548-d26d8efaa7f9}, !- Space Name
  Surface,                                !- Outside Boundary Condition
  {cc046b73-c3a9-44fd-8aa8-23fb6c31241b}, !- Outside Boundary Condition Object
  NoSun,                                  !- Sun Exposure
  NoWind,                                 !- Wind Exposure
  ,                                       !- View Factor to Ground
  ,                                       !- Number of Vertices
  7.105427357601e-15, 75.5928946018456, 3.2, !- X,Y,Z Vertex 1 {m}
  7.105427357601e-15, 75.5928946018456, 0, !- X,Y,Z Vertex 2 {m}
  7.105427357601e-15, 1.4210854715202e-14, 0, !- X,Y,Z Vertex 3 {m}
  7.105427357601e-15, 1.4210854715202e-14, 3.2; !- X,Y,Z Vertex 4 {m}

OS:Surface,
  {92e61f2e-0629-4e55-865e-dcf3835d77f2}, !- Handle
  Surface 17,                             !- Name
  Wall,                                   !- Surface Type
  ,                                       !- Construction Name
  {65ecde57-c482-4d45-b548-d26d8efaa7f9}, !- Space Name
  Surface,                                !- Outside Boundary Condition
  {a14f1dd7-0cd5-4342-8310-9f7514f5c546}, !- Outside Boundary Condition Object
  NoSun,                                  !- Sun Exposure
  NoWind,                                 !- Wind Exposure
  ,                                       !- View Factor to Ground
  ,                                       !- Number of Vertices
  1.52333333333331, 77.1162279351786, 3.2, !- X,Y,Z Vertex 1 {m}
  1.52333333333331, 77.1162279351786, 0,  !- X,Y,Z Vertex 2 {m}
  7.105427357601e-15, 75.5928946018456, 0, !- X,Y,Z Vertex 3 {m}
  7.105427357601e-15, 75.5928946018456, 3.2; !- X,Y,Z Vertex 4 {m}

OS:Surface,
  {58dc9635-04ce-400e-b21a-862923a8a70b}, !- Handle
  Surface 18,                             !- Name
  RoofCeiling,                            !- Surface Type
  ,                                       !- Construction Name
  {65ecde57-c482-4d45-b548-d26d8efaa7f9}, !- Space Name
  Surface,                                !- Outside Boundary Condition
  {d235c8f1-8c55-4dc5-9908-947eeff1d2ad}, !- Outside Boundary Condition Object
  NoSun,                                  !- Sun Exposure
  NoWind,                                 !- Wind Exposure
  ,                                       !- View Factor to Ground
  ,                                       !- Number of Vertices
  7.105427357601e-15, 75.5928946018456, 3.2, !- X,Y,Z Vertex 1 {m}
  7.105427357601e-15, 1.4210854715202e-14, 3.2, !- X,Y,Z Vertex 2 {m}
  1.52333333333331, 1.52333333333331, 3.2, !- X,Y,Z Vertex 3 {m}
  1.52333333333331, 77.1162279351786, 3.2; !- X,Y,Z Vertex 4 {m}

OS:Space,
  {c70b38e5-121d-49ee-9bea-7e91727d44d4}, !- Handle
  Story 1 North Lower Perimeter Space,    !- Name
  ,                                       !- Space Type Name
  ,                                       !- Default Construction Set Name
  ,                                       !- Default Schedule Set Name
  -0,                                     !- Direction of Relative North {deg}
  36.2731139675894,                       !- X Origin {m}
  36.2731139675894,                       !- Y Origin {m}
  0,                                      !- Z Origin {m}
  {f12066ce-4f30-40a8-8eca-f23b0e97c4f0}, !- Building Story Name
  {3e41ff01-4384-412b-8f17-e60addbaa973}; !- Thermal Zone Name

OS:Surface,
  {3252c863-03a8-49b9-967c-a674f88a6d51}, !- Handle
  Surface 19,                             !- Name
  Floor,                                  !- Surface Type
  ,                                       !- Construction Name
  {c70b38e5-121d-49ee-9bea-7e91727d44d4}, !- Space Name
  Ground,                                 !- Outside Boundary Condition
  ,                                       !- Outside Boundary Condition Object
  NoSun,                                  !- Sun Exposure
  NoWind,                                 !- Wind Exposure
  ,                                       !- View Factor to Ground
  ,                                       !- Number of Vertices
  1.52333333333331, 1.52333333333331, 0,  !- X,Y,Z Vertex 1 {m}
  39.319780634256, 1.52333333333331, 0,   !- X,Y,Z Vertex 2 {m}
  40.8431139675894, 1.4210854715202e-14, 0, !- X,Y,Z Vertex 3 {m}
  7.105427357601e-15, 1.4210854715202e-14, 0; !- X,Y,Z Vertex 4 {m}

OS:Surface,
  {dee239f5-22b0-4c52-9a19-09b64cb44594}, !- Handle
  Surface 20,                             !- Name
  Wall,                                   !- Surface Type
  ,                                       !- Construction Name
  {c70b38e5-121d-49ee-9bea-7e91727d44d4}, !- Space Name
  Outdoors,                               !- Outside Boundary Condition
  ,                                       !- Outside Boundary Condition Object
  SunExposed,                             !- Sun Exposure
  WindExposed,                            !- Wind Exposure
  ,                                       !- View Factor to Ground
  ,                                       !- Number of Vertices
  39.319780634256, 1.52333333333331, 3.2, !- X,Y,Z Vertex 1 {m}
  39.319780634256, 1.52333333333331, 0,   !- X,Y,Z Vertex 2 {m}
  1.52333333333331, 1.52333333333331, 0,  !- X,Y,Z Vertex 3 {m}
  1.52333333333331, 1.52333333333331, 3.2; !- X,Y,Z Vertex 4 {m}

OS:Surface,
  {5be92c2d-d280-4711-94eb-9225232ce6f4}, !- Handle
  Surface 21,                             !- Name
  Wall,                                   !- Surface Type
  ,                                       !- Construction Name
  {c70b38e5-121d-49ee-9bea-7e91727d44d4}, !- Space Name
  Surface,                                !- Outside Boundary Condition
  {7a4d89bb-c8a0-4a77-b28c-fa39cd7aec0f}, !- Outside Boundary Condition Object
  NoSun,                                  !- Sun Exposure
  NoWind,                                 !- Wind Exposure
  ,                                       !- View Factor to Ground
  ,                                       !- Number of Vertices
  40.8431139675894, 1.4210854715202e-14, 3.2, !- X,Y,Z Vertex 1 {m}
  40.8431139675894, 1.4210854715202e-14, 0, !- X,Y,Z Vertex 2 {m}
  39.319780634256, 1.52333333333331, 0,   !- X,Y,Z Vertex 3 {m}
  39.319780634256, 1.52333333333331, 3.2; !- X,Y,Z Vertex 4 {m}

OS:Surface,
  {372e7426-1ab1-40e6-88b2-9a43478ccac4}, !- Handle
  Surface 22,                             !- Name
  Wall,                                   !- Surface Type
  ,                                       !- Construction Name
  {c70b38e5-121d-49ee-9bea-7e91727d44d4}, !- Space Name
  Surface,                                !- Outside Boundary Condition
  {391de02b-f3e9-4ae0-a2a8-e98e2fbefcd8}, !- Outside Boundary Condition Object
  NoSun,                                  !- Sun Exposure
  NoWind,                                 !- Wind Exposure
  ,                                       !- View Factor to Ground
  ,                                       !- Number of Vertices
  7.105427357601e-15, 1.4210854715202e-14, 3.2, !- X,Y,Z Vertex 1 {m}
  7.105427357601e-15, 1.4210854715202e-14, 0, !- X,Y,Z Vertex 2 {m}
  40.8431139675894, 1.4210854715202e-14, 0, !- X,Y,Z Vertex 3 {m}
  40.8431139675894, 1.4210854715202e-14, 3.2; !- X,Y,Z Vertex 4 {m}

OS:Surface,
  {771ee254-f3fd-4bac-ac9c-40d6a5b62f35}, !- Handle
  Surface 23,                             !- Name
  Wall,                                   !- Surface Type
  ,                                       !- Construction Name
  {c70b38e5-121d-49ee-9bea-7e91727d44d4}, !- Space Name
  Surface,                                !- Outside Boundary Condition
  {12a63c13-b83f-4a5f-ba0e-164fb9664033}, !- Outside Boundary Condition Object
  NoSun,                                  !- Sun Exposure
  NoWind,                                 !- Wind Exposure
  ,                                       !- View Factor to Ground
  ,                                       !- Number of Vertices
  1.52333333333331, 1.52333333333331, 3.2, !- X,Y,Z Vertex 1 {m}
  1.52333333333331, 1.52333333333331, 0,  !- X,Y,Z Vertex 2 {m}
  7.105427357601e-15, 1.4210854715202e-14, 0, !- X,Y,Z Vertex 3 {m}
  7.105427357601e-15, 1.4210854715202e-14, 3.2; !- X,Y,Z Vertex 4 {m}

OS:Surface,
  {5477672a-b5d6-4145-b099-a605794f506d}, !- Handle
  Surface 24,                             !- Name
  RoofCeiling,                            !- Surface Type
  ,                                       !- Construction Name
  {c70b38e5-121d-49ee-9bea-7e91727d44d4}, !- Space Name
  Surface,                                !- Outside Boundary Condition
  {69b5ef45-faa6-455b-9d45-d9d9375470d5}, !- Outside Boundary Condition Object
  NoSun,                                  !- Sun Exposure
  NoWind,                                 !- Wind Exposure
  ,                                       !- View Factor to Ground
  ,                                       !- Number of Vertices
  7.105427357601e-15, 1.4210854715202e-14, 3.2, !- X,Y,Z Vertex 1 {m}
  40.8431139675894, 1.4210854715202e-14, 3.2, !- X,Y,Z Vertex 2 {m}
  39.319780634256, 1.52333333333331, 3.2, !- X,Y,Z Vertex 3 {m}
  1.52333333333331, 1.52333333333331, 3.2; !- X,Y,Z Vertex 4 {m}

OS:Space,
  {2c763408-d595-46d3-9016-6094313ec14f}, !- Handle
  Story 1 West Right Perimeter Space,     !- Name
  ,                                       !- Space Type Name
  ,                                       !- Default Construction Set Name
  ,                                       !- Default Schedule Set Name
  -0,                                     !- Direction of Relative North {deg}
  75.5928946018454,                       !- X Origin {m}
  37.7964473009227,                       !- Y Origin {m}
  0,                                      !- Z Origin {m}
  {f12066ce-4f30-40a8-8eca-f23b0e97c4f0}, !- Building Story Name
  {99210721-4655-40e0-ba07-523f4376adde}; !- Thermal Zone Name

OS:Surface,
  {4bca9993-101d-4a8e-8f0a-9eb97646bb34}, !- Handle
  Surface 25,                             !- Name
  Floor,                                  !- Surface Type
  ,                                       !- Construction Name
  {2c763408-d595-46d3-9016-6094313ec14f}, !- Space Name
  Ground,                                 !- Outside Boundary Condition
  ,                                       !- Outside Boundary Condition Object
  NoSun,                                  !- Sun Exposure
  NoWind,                                 !- Wind Exposure
  ,                                       !- View Factor to Ground
  ,                                       !- Number of Vertices
  -4.2632564145606e-14, -2.1316282072803e-14, 0, !- X,Y,Z Vertex 1 {m}
  -4.2632564145606e-14, 75.5928946018453, 0, !- X,Y,Z Vertex 2 {m}
  1.52333333333335, 74.0695612685123, 0,  !- X,Y,Z Vertex 3 {m}
  1.52333333333335, -1.52333333333332, 0; !- X,Y,Z Vertex 4 {m}

OS:Surface,
  {83dfe666-c34c-4b5f-9022-c114ff9560b3}, !- Handle
  Surface 26,                             !- Name
  Wall,                                   !- Surface Type
  ,                                       !- Construction Name
  {2c763408-d595-46d3-9016-6094313ec14f}, !- Space Name
  Outdoors,                               !- Outside Boundary Condition
  ,                                       !- Outside Boundary Condition Object
  SunExposed,                             !- Sun Exposure
  WindExposed,                            !- Wind Exposure
  ,                                       !- View Factor to Ground
  ,                                       !- Number of Vertices
  -4.2632564145606e-14, 75.5928946018453, 3.2, !- X,Y,Z Vertex 1 {m}
  -4.2632564145606e-14, 75.5928946018453, 0, !- X,Y,Z Vertex 2 {m}
  -4.2632564145606e-14, -2.1316282072803e-14, 0, !- X,Y,Z Vertex 3 {m}
  -4.2632564145606e-14, -2.1316282072803e-14, 3.2; !- X,Y,Z Vertex 4 {m}

OS:Surface,
  {fc3efa09-370e-48af-b1b0-a2fa7b2490f8}, !- Handle
  Surface 27,                             !- Name
  Wall,                                   !- Surface Type
  ,                                       !- Construction Name
  {2c763408-d595-46d3-9016-6094313ec14f}, !- Space Name
  Surface,                                !- Outside Boundary Condition
  {2da3a95b-b345-451f-aa1c-c27cee32998b}, !- Outside Boundary Condition Object
  NoSun,                                  !- Sun Exposure
  NoWind,                                 !- Wind Exposure
  ,                                       !- View Factor to Ground
  ,                                       !- Number of Vertices
  1.52333333333335, 74.0695612685123, 3.2, !- X,Y,Z Vertex 1 {m}
  1.52333333333335, 74.0695612685123, 0,  !- X,Y,Z Vertex 2 {m}
  -4.2632564145606e-14, 75.5928946018453, 0, !- X,Y,Z Vertex 3 {m}
  -4.2632564145606e-14, 75.5928946018453, 3.2; !- X,Y,Z Vertex 4 {m}

OS:Surface,
  {fc61dd95-c20b-4c07-8b3b-89935efa1192}, !- Handle