
Version,
  8.9;                                    !- Version Identifier

Timestep,
  1;                                      !- Number of Timesteps per Hour

LifeCycleCost:Parameters,
  {63dc69a4-64b0-4537-a796-ea1bc0ea7355}, !- Name
  EndOfYear,                              !- Discounting Convention
  ConstantDollar,                         !- Inflation Approach
  0.03,                                   !- Real Discount Rate
  ,                                       !- Nominal Discount Rate
  ,                                       !- Inflation
  ,                                       !- Base Date Month
  2011,                                   !- Base Date Year
  ,                                       !- Service Date Month
  2011,                                   !- Service Date Year
  25,                                     !- Length of Study Period in Years
  ,                                       !- Tax rate
  None;                                   !- Depreciation Method

LifeCycleCost:UsePriceEscalation,
  U.S. Avg  Commercial-Electricity,       !- LCC Price Escalation Name
  Electricity,                            !- Resource
  2011,                                   !- Escalation Start Year
  January,                                !- Escalation Start Month
  0.9838,                                 !- Year Escalation 1
  0.9730,                                 !- Year Escalation 2
  0.9632,                                 !- Year Escalation 3
  0.9611,                                 !- Year Escalation 4
  0.9571,                                 !- Year Escalation 5
  0.9553,                                 !- Year Escalation 6
  0.9539,                                 !- Year Escalation 7
  0.9521,                                 !- Year Escalation 8
  0.9546,                                 !- Year Escalation 9
  0.9550,                                 !- Year Escalation 10
  0.9553,                                 !- Year Escalation 11
  0.9564,                                 !- Year Escalation 12
  0.9575,                                 !- Year Escalation 13
  0.9596,                                 !- Year Escalation 14
  0.9618,                                 !- Year Escalation 15
  0.9614,                                 !- Year Escalation 16
  0.9618,                                 !- Year Escalation 17
  0.9618,                                 !- Year Escalation 18
  0.9593,                                 !- Year Escalation 19
  0.9589,                                 !- Year Escalation 20
  0.9607,                                 !- Year Escalation 21
  0.9625,                                 !- Year Escalation 22
  0.9650,                                 !- Year Escalation 23
  0.9708,                                 !- Year Escalation 24
  0.9751,                                 !- Year Escalation 25
  0.9762,                                 !- Year Escalation 26
  0.9766,                                 !- Year Escalation 27
  0.9766,                                 !- Year Escalation 28
  0.9769,                                 !- Year Escalation 29
  0.9773;                                 !- Year Escalation 30

LifeCycleCost:UsePriceEscalation,
  U.S. Avg  Commercial-Distillate Oil,    !- LCC Price Escalation Name
  FuelOil#1,                              !- Resource
  2011,                                   !- Escalation Start Year
  January,                                !- Escalation Start Month
  0.9714,                                 !- Year Escalation 1
  0.9730,                                 !- Year Escalation 2
  0.9942,                                 !- Year Escalation 3
  1.0164,                                 !- Year Escalation 4
  1.0541,                                 !- Year Escalation 5
  1.0928,                                 !- Year Escalation 6
  1.1267,                                 !- Year Escalation 7
  1.1580,                                 !- Year Escalation 8
  1.1792,                                 !- Year Escalation 9
  1.1967,                                 !- Year Escalation 10
  1.2200,                                 !- Year Escalation 11
  1.2333,                                 !- Year Escalation 12
  1.2566,                                 !- Year Escalation 13
  1.2709,                                 !- Year Escalation 14
  1.2826,                                 !- Year Escalation 15
  1.2985,                                 !- Year Escalation 16
  1.3102,                                 !- Year Escalation 17
  1.3250,                                 !- Year Escalation 18
  1.3261,                                 !- Year Escalation 19
  1.3282,                                 !- Year Escalation 20
  1.3324,                                 !- Year Escalation 21
  1.3356,                                 !- Year Escalation 22
  1.3431,                                 !- Year Escalation 23
  1.3510,                                 !- Year Escalation 24
  1.3568,                                 !- Year Escalation 25
  1.3606,                                 !- Year Escalation 26
  1.3637,                                 !- Year Escalation 27
  1.3674,                                 !- Year Escalation 28
  1.3706,                                 !- Year Escalation 29
  1.3743;                                 !- Year Escalation 30

LifeCycleCost:UsePriceEscalation,
  U.S. Avg  Commercial-Residual Oil,      !- LCC Price Escalation Name
  FuelOil#2,                              !- Resource
  2011,                                   !- Escalation Start Year
  January,                                !- Escalation Start Month
  0.8469,                                 !- Year Escalation 1
  0.8257,                                 !- Year Escalation 2
  0.8681,                                 !- Year Escalation 3
  0.8988,                                 !- Year Escalation 4
  0.9289,                                 !- Year Escalation 5
  0.9604,                                 !- Year Escalation 6
  0.9897,                                 !- Year Escalation 7
  1.0075,                                 !- Year Escalation 8
  1.0314,                                 !- Year Escalation 9
  1.0554,                                 !- Year Escalation 10
  1.0861,                                 !- Year Escalation 11
  1.1278,                                 !- Year Escalation 12
  1.1497,                                 !- Year Escalation 13
  1.1620,                                 !- Year Escalation 14
  1.1743,                                 !- Year Escalation 15
  1.1852,                                 !- Year Escalation 16
  1.1948,                                 !- Year Escalation 17
  1.2037,                                 !- Year Escalation 18
  1.2071,                                 !- Year Escalation 19
  1.2119,                                 !- Year Escalation 20
  1.2139,                                 !- Year Escalation 21
  1.2194,                                 !- Year Escalation 22
  1.2276,                                 !- Year Escalation 23
  1.2365,                                 !- Year Escalation 24
  1.2420,                                 !- Year Escalation 25
  1.2461,                                 !- Year Escalation 26
  1.2509,                                 !- Year Escalation 27
  1.2550,                                 !- Year Escalation 28
  1.2591,                                 !- Year Escalation 29
  1.2638;                                 !- Year Escalation 30

LifeCycleCost:UsePriceEscalation,
  U.S. Avg  Commercial-Natural gas,       !- LCC Price Escalation Name
  NaturalGas,                             !- Resource
  2011,                                   !- Escalation Start Year
  January,                                !- Escalation Start Month
  0.9823,                                 !- Year Escalation 1
  0.9557,                                 !- Year Escalation 2
  0.9279,                                 !- Year Escalation 3
  0.9257,                                 !- Year Escalation 4
  0.9346,                                 !- Year Escalation 5
  0.9412,                                 !- Year Escalation 6
  0.9512,                                 !- Year Escalation 7
  0.9645,                                 !- Year Escalation 8
  0.9856,                                 !- Year Escalation 9
  1.0067,                                 !- Year Escalation 10
  1.0222,                                 !- Year Escalation 11
  1.0410,                                 !- Year Escalation 12
  1.0610,                                 !- Year Escalation 13
  1.0787,                                 !- Year Escalation 14
  1.0942,                                 !- Year Escalation 15
  1.1098,                                 !- Year Escalation 16
  1.1220,                                 !- Year Escalation 17
  1.1308,                                 !- Year Escalation 18
  1.1386,                                 !- Year Escalation 19
  1.1486,                                 !- Year Escalation 20
  1.1619,                                 !- Year Escalation 21
  1.1763,                                 !- Year Escalation 22
  1.1918,                                 !- Year Escalation 23
  1.2118,                                 !- Year Escalation 24
  1.2284,                                 !- Year Escalation 25
  1.2439,                                 !- Year Escalation 26
  1.2605,                                 !- Year Escalation 27
  1.2772,                                 !- Year Escalation 28
  1.2938,                                 !- Year Escalation 29
  1.3115;                                 !- Year Escalation 30

LifeCycleCost:UsePriceEscalation,
  U.S. Avg  Commercial-Coal,              !- LCC Price Escalation Name
  Coal,                                   !- Resource
  2011,                                   !- Escalation Start Year
  January,                                !- Escalation Start Month
  0.9970,                                 !- Year Escalation 1
  1.0089,                                 !- Year Escalation 2
  1.0089,                                 !- Year Escalation 3
  0.9941,                                 !- Year Escalation 4
  0.9941,                                 !- Year Escalation 5
  1.0000,                                 !- Year Escalation 6
  1.0030,                                 !- Year Escalation 7
  1.0059,                                 !- Year Escalation 8
  1.0089,                                 !- Year Escalation 9
  1.0119,                                 !- Year Escalation 10
  1.0148,                                 !- Year Escalation 11
  1.0178,                                 !- Year Escalation 12
  1.0208,                                 !- Year Escalation 13
  1.0267,                                 !- Year Escalation 14
  1.0297,                                 !- Year Escalation 15
  1.0356,                                 !- Year Escalation 16
  1.0415,                                 !- Year Escalation 17
  1.0534,                                 !- Year Escalation 18
  1.0564,                                 !- Year Escalation 19
  1.0593,                                 !- Year Escalation 20
  1.0653,                                 !- Year Escalation 21
  1.0712,                                 !- Year Escalation 22
  1.0742,                                 !- Year Escalation 23
  1.0801,                                 !- Year Escalation 24
  1.0831,                                 !- Year Escalation 25
  1.0831,                                 !- Year Escalation 26
  1.0861,                                 !- Year Escalation 27
  1.0890,                                 !- Year Escalation 28
  1.0920,                                 !- Year Escalation 29
  1.0950;                                 !- Year Escalation 30

Building,
  HighRise_Apt_2004,                      !- Name
  104.903354966082,                       !- North Axis {deg}
  ,                                       !- Terrain
  ,                                       !- Loads Convergence Tolerance Value
  ,                                       !- Temperature Convergence Tolerance Value {deltaC}
  ,                                       !- Solar Distribution
  ,                                       !- Maximum Number of Warmup Days
  ;                                       !- Minimum Number of Warmup Days

Zone,
  blocks-964_multifamily_10_Core,         !- Name
  0,                                      !- Direction of Relative North {deg}
  0,                                      !- X Origin {m}
  0,                                      !- Y Origin {m}
  0,                                      !- Z Origin {m}
  ,                                       !- Type
  ,                                       !- Multiplier
  ,                                       !- Ceiling Height {m}
  ,                                       !- Volume {m3}
  ,                                       !- Floor Area {m2}
  ,                                       !- Zone Inside Convection Algorithm
  ;                                       !- Zone Outside Convection Algorithm

BuildingSurface:Detailed,
  Surface 295,                            !- Name
  Floor,                                  !- Surface Type
  INT-FLOOR-TOPSIDE,                      !- Construction Name
  blocks-964_multifamily_10_Core,         !- Zone Name
  Surface,                                !- Outside Boundary Condition
  Surface 270,                            !- Outside Boundary Condition Object
  NoSun,                                  !- Sun Exposure
  NoWind,                                 !- Wind Exposure
  ,                                       !- View Factor to Ground
  ,                                       !- Number of Vertices
  -3.8862, -18.5928, 27.432,              !- X,Y,Z Vertex 1 {m}
  -3.8862, 18.5928, 27.432,               !- X,Y,Z Vertex 2 {m}
  3.8862, 18.5928, 27.432,                !- X,Y,Z Vertex 3 {m}
  3.8862, -18.5928, 27.432;               !- X,Y,Z Vertex 4 {m}

BuildingSurface:Detailed,
  Surface 296,                            !- Name
  Wall,                                   !- Surface Type
  Standard_Int-Wall,                      !- Construction Name
  blocks-964_multifamily_10_Core,         !- Zone Name
  Surface,                                !- Outside Boundary Condition
  Surface 274,                            !- Outside Boundary Condition Object
  NoSun,                                  !- Sun Exposure
  NoWind,                                 !- Wind Exposure
  ,                                       !- View Factor to Ground
  ,                                       !- Number of Vertices
  -3.8862, 18.5928, 30.48,                !- X,Y,Z Vertex 1 {m}
  -3.8862, 18.5928, 27.432,               !- X,Y,Z Vertex 2 {m}
  -3.8862, -18.5928, 27.432,              !- X,Y,Z Vertex 3 {m}
  -3.8862, -18.5928, 30.48;               !- X,Y,Z Vertex 4 {m}

BuildingSurface:Detailed,
  Surface 297,                            !- Name
  Wall,                                   !- Surface Type
  Standard_Int-Wall,                      !- Construction Name
  blocks-964_multifamily_10_Core,         !- Zone Name
  Surface,                                !- Outside Boundary Condition
  Surface 280,                            !- Outside Boundary Condition Object
  NoSun,                                  !- Sun Exposure
  NoWind,                                 !- Wind Exposure
  ,                                       !- View Factor to Ground
  ,                                       !- Number of Vertices
  3.8862, 18.5928, 30.48,                 !- X,Y,Z Vertex 1 {m}
  3.8862, 18.5928, 27.432,                !- X,Y,Z Vertex 2 {m}
  -3.8862, 18.5928, 27.432,               !- X,Y,Z Vertex 3 {m}
  -3.8862, 18.5928, 30.48;                !- X,Y,Z Vertex 4 {m}

BuildingSurface:Detailed,
  Surface 298,                            !- Name
  Wall,                                   !- Surface Type
  Standard_Int-Wall,                      !- Construction Name
  blocks-964_multifamily_10_Core,         !- Zone Name
  Surface,                                !- Outside Boundary Condition
  Surface 286,                            !- Outside Boundary Condition Object
  NoSun,                                  !- Sun Exposure
  NoWind,                                 !- Wind Exposure
  ,                                       !- View Factor to Ground
  ,                                       !- Number of Vertices
  3.8862, -18.5928, 30.48,                !- X,Y,Z Vertex 1 {m}
  3.8862, -18.5928, 27.432,               !- X,Y,Z Vertex 2 {m}
  3.8862, 18.5928, 27.432,                !- X,Y,Z Vertex 3 {m}
  3.8862, 18.5928, 30.48;                 !- X,Y,Z Vertex 4 {m}

BuildingSurface:Detailed,
  Surface 299,                            !- Name
  Wall,                                   !- Surface Type
  Standard_Int-Wall,                      !- Construction Name
  blocks-964_multifamily_10_Core,         !- Zone Name
  Surface,                                !- Outside Boundary Condition
  Surface 292,                            !- Outside Boundary Condition Object
  NoSun,                                  !- Sun Exposure
  NoWind,                                 !- Wind Exposure
  ,                                       !- View Factor to Ground
  ,                                       !- Number of Vertices
  -3.8862, -18.5928, 30.48,               !- X,Y,Z Vertex 1 {m}
  -3.8862, -18.5928, 27.432,              !- X,Y,Z Vertex 2 {m}
  3.8862, -18.5928, 27.432,               !- X,Y,Z Vertex 3 {m}
  3.8862, -18.5928, 30.48;                !- X,Y,Z Vertex 4 {m}

BuildingSurface:Detailed,
  Surface 300,                            !- Name
  Roof,                                   !- Surface Type
  IEAD_Metal_Deck,                        !- Construction Name
  blocks-964_multifamily_10_Core,         !- Zone Name
  Outdoors,                               !- Outside Boundary Condition
  ,                                       !- Outside Boundary Condition Object
  SunExposed,                             !- Sun Exposure
  WindExposed,                            !- Wind Exposure
  ,                                       !- View Factor to Ground
  ,                                       !- Number of Vertices
  3.8862, -18.5928, 30.48,                !- X,Y,Z Vertex 1 {m}
  3.8862, 18.5928, 30.48,                 !- X,Y,Z Vertex 2 {m}
  -3.8862, 18.5928, 30.48,                !- X,Y,Z Vertex 3 {m}
  -3.8862, -18.5928, 30.48;               !- X,Y,Z Vertex 4 {m}

Lights,
  PNNL_Asset_Rating_Apartment_Lights 50,  !- Name
  blocks-964_multifamily_10_Core,         !- Zone or ZoneList Name
  PNNL_Asset_Rating_Apartment_Lighting_Schedule, !- Schedule Name
  Watts/Area,                             !- Design Level Calculation Method
  ,                                       !- Lighting Level {W}
  7.53853512739325,                       !- Watts per Zone Floor Area {W/m2}
  ,                                       !- Watts per Person {W/person}
  ,                                       !- Return Air Fraction
  0.37,                                   !- Fraction Radiant
  0.18,                                   !- Fraction Visible
  ;                                       !- Fraction Replaceable

ScheduleTypeLimits,
  Fractional,                             !- Name
  0,                                      !- Lower Limit Value {BasedOnField A3}
  1,                                      !- Upper Limit Value {BasedOnField A3}
  Continuous;                             !- Numeric Type

Schedule:Day:Interval,
  PNNL_Asset_Rating_Apartment_Lighting_Schedule_Week_Day, !- Name
  Fractional,                             !- Schedule Type Limits Name
  No,                                     !- Interpolate to Timestep
  01:00,                                  !- Time 1 {hh:mm}
  0.0666666666666667,                     !- Value Until Time 1
  02:00,                                  !- Time 2 {hh:mm}
  0.0666666666666667,                     !- Value Until Time 2
  03:00,                                  !- Time 3 {hh:mm}
  0.0666666666666667,                     !- Value Until Time 3
  04:00,                                  !- Time 4 {hh:mm}
  0.0666666666666667,                     !- Value Until Time 4
  05:00,                                  !- Time 5 {hh:mm}
  0.186723927681459,                      !- Value Until Time 5
  06:00,                                  !- Time 6 {hh:mm}
  0.393633888294538,                      !- Value Until Time 6
  07:00,                                  !- Time 7 {hh:mm}
  0.439554520344583,                      !- Value Until Time 7
  08:00,                                  !- Time 8 {hh:mm}
  0.392721721200448,                      !- Value Until Time 8
  09:00,                                  !- Time 9 {hh:mm}
  0.172403328459901,                      !- Value Until Time 9
  10:00,                                  !- Time 10 {hh:mm}
  0.119012734111775,                      !- Value Until Time 10
  11:00,                                  !- Time 11 {hh:mm}
  0.119012734111775,                      !- Value Until Time 11
  12:00,                                  !- Time 12 {hh:mm}
  0.119012734111775,                      !- Value Until Time 12
  13:00,                                  !- Time 13 {hh:mm}
  0.119012734111775,                      !- Value Until Time 13
  14:00,                                  !- Time 14 {hh:mm}
  0.119012734111775,                      !- Value Until Time 14
  15:00,                                  !- Time 15 {hh:mm}
  0.119012734111775,                      !- Value Until Time 15
  16:00,                                  !- Time 16 {hh:mm}
  0.205903171943555,                      !- Value Until Time 16
  17:00,                                  !- Time 17 {hh:mm}
  0.438575069379229,                      !- Value Until Time 17
  18:00,                                  !- Time 18 {hh:mm}
  0.616443135178556,                      !- Value Until Time 18
  19:00,                                  !- Time 19 {hh:mm}
  0.829024013456774,                      !- Value Until Time 19
  20:00,                                  !- Time 20 {hh:mm}
  0.985839098291539,                      !- Value Until Time 20
  21:00,                                  !- Time 21 {hh:mm}
  1,                                      !- Value Until Time 21
  22:00,                                  !- Time 22 {hh:mm}
  0.691778236311356,                      !- Value Until Time 22
  23:00,                                  !- Time 23 {hh:mm}
  0.383569298973819,                      !- Value Until Time 23
  24:00,                                  !- Time 24 {hh:mm}
  0.160028630507396;                      !- Value Until Time 24

Schedule:Day:Interval,
  PNNL_Asset_Rating_Apartment_Lighting_Schedule_Saturday, !- Name
  Fractional,                             !- Schedule Type Limits Name
  No,                                     !- Interpolate to Timestep
  01:00,                                  !- Time 1 {hh:mm}
  0.0666666666666667,                     !- Value Until Time 1
  02:00,                                  !- Time 2 {hh:mm}
  0.0666666666666667,                     !- Value Until Time 2
  03:00,                                  !- Time 3 {hh:mm}
  0.0666666666666667,                     !- Value Until Time 3
  04:00,                                  !- Time 4 {hh:mm}
  0.0666666666666667,                     !- Value Until Time 4
  05:00,                                  !- Time 5 {hh:mm}
  0.186723927681459,                      !- Value Until Time 5
  06:00,                                  !- Time 6 {hh:mm}
  0.393633888294538,                      !- Value Until Time 6
  07:00,                                  !- Time 7 {hh:mm}
  0.439554520344583,                      !- Value Until Time 7
  08:00,                                  !- Time 8 {hh:mm}
  0.392721721200448,                      !- Value Until Time 8
  09:00,                                  !- Time 9 {hh:mm}
  0.172403328459901,                      !- Value Until Time 9
  10:00,                                  !- Time 10 {hh:mm}
  0.119012734111775,                      !- Value Until Time 10
  11:00,                                  !- Time 11 {hh:mm}
  0.119012734111775,                      !- Value Until Time 11
  12:00,                                  !- Time 12 {hh:mm}
  0.119012734111775,                      !- Value Until Time 12
  13:00,                                  !- Time 13 {hh:mm}
  0.119012734111775,                      !- Value Until Time 13
  14:00,                                  !- Time 14 {hh:mm}
  0.119012734111775,                      !- Value Until Time 14
  15:00,                                  !- Time 15 {hh:mm}
  0.119012734111775,                      !- Value Until Time 15
  16:00,                                  !- Time 16 {hh:mm}
  0.205903171943555,                      !- Value Until Time 16
  17:00,                                  !- Time 17 {hh:mm}
  0.438575069379229,                      !- Value Until Time 17
  18:00,                                  !- Time 18 {hh:mm}
  0.616443135178556,                      !- Value Until Time 18
  19:00,                                  !- Time 19 {hh:mm}
  0.829024013456774,                      !- Value Until Time 19
  20:00,                                  !- Time 20 {hh:mm}
  0.985839098291539,                      !- Value Until Time 20
  21:00,                                  !- Time 21 {hh:mm}
  1,                                      !- Value Until Time 21
  22:00,                                  !- Time 22 {hh:mm}
  0.691778236311356,                      !- Value Until Time 22
  23:00,                                  !- Time 23 {hh:mm}
  0.383569298973819,                      !- Value Until Time 23
  24:00,                                  !- Time 24 {hh:mm}
  0.160028630507396;                      !- Value Until Time 24

Schedule:Day:Interval,
  PNNL_Asset_Rating_Apartment_Lighting_Schedule_Sunday, !- Name
  Fractional,                             !- Schedule Type Limits Name
  No,                                     !- Interpolate to Timestep
  01:00,                                  !- Time 1 {hh:mm}
  0.0666666666666667,                     !- Value Until Time 1
  02:00,                                  !- Time 2 {hh:mm}
  0.0666666666666667,                     !- Value Until Time 2
  03:00,                                  !- Time 3 {hh:mm}
  0.0666666666666667,                     !- Value Until Time 3
  04:00,                                  !- Time 4 {hh:mm}
  0.0666666666666667,                     !- Value Until Time 4
  05:00,                                  !- Time 5 {hh:mm}
  0.186723927681459,                      !- Value Until Time 5
  06:00,                                  !- Time 6 {hh:mm}
  0.393633888294538,                      !- Value Until Time 6
  07:00,                                  !- Time 7 {hh:mm}
  0.439554520344583,                      !- Value Until Time 7
  08:00,                                  !- Time 8 {hh:mm}
  0.392721721200448,                      !- Value Until Time 8
  09:00,                                  !- Time 9 {hh:mm}
  0.172403328459901,                      !- Value Until Time 9
  10:00,                                  !- Time 10 {hh:mm}
  0.119012734111775,                      !- Value Until Time 10
  11:00,                                  !- Time 11 {hh:mm}
  0.119012734111775,                      !- Value Until Time 11
  12:00,                                  !- Time 12 {hh:mm}
  0.119012734111775,                      !- Value Until Time 12
  13:00,                                  !- Time 13 {hh:mm}
  0.119012734111775,                      !- Value Until Time 13
  14:00,                                  !- Time 14 {hh:mm}
  0.119012734111775,                      !- Value Until Time 14
  15:00,                                  !- Time 15 {hh:mm}
  0.119012734111775,                      !- Value Until Time 15
  16:00,                                  !- Time 16 {hh:mm}
  0.205903171943555,                      !- Value Until Time 16
  17:00,                                  !- Time 17 {hh:mm}
  0.438575069379229,                      !- Value Until Time 17
  18:00,                                  !- Time 18 {hh:mm}
  0.616443135178556,                      !- Value Until Time 18
  19:00,                                  !- Time 19 {hh:mm}
  0.829024013456774,                      !- Value Until Time 19
  20:00,                                  !- Time 20 {hh:mm}
  0.985839098291539,                      !- Value Until Time 20
  21:00,                                  !- Time 21 {hh:mm}
  1,                                      !- Value Until Time 21
  22:00,                                  !- Time 22 {hh:mm}
  0.691778236311356,                      !- Value Until Time 22
  23:00,                                  !- Time 23 {hh:mm}
  0.383569298973819,                      !- Value Until Time 23
  24:00,                                  !- Time 24 {hh:mm}
  0.160028630507396;                      !- Value Until Time 24

Schedule:Week:Daily,
  Schedule:Week:Daily {b3e1a0ed-e32f-49e3-9e1e-a54bf9f4c8a1}, !- Name
  PNNL_Asset_Rating_Apartment_Lighting_Schedule_Week_Day, !- Sunday Schedule:Day Name
  PNNL_Asset_Rating_Apartment_Lighting_Schedule_Week_Day, !- Monday Schedule:Day Name
  PNNL_Asset_Rating_Apartment_Lighting_Schedule_Week_Day, !- Tuesday Schedule:Day Name
  PNNL_Asset_Rating_Apartment_Lighting_Schedule_Week_Day, !- Wednesday Schedule:Day Name