
OS:Version,
  {ff50a581-fbf4-41dd-a155-9f9484de6595}, !- Handle
  2.8.1;                                  !- Version Identifier

OS:BuildingStory,
  {4878d9ba-fe8c-4c2e-b8ec-705ab2940b82}, !- Handle
  Story 1,                                !- Name
  0,                                      !- Nominal Z Coordinate {m}
  3.2,                                    !- Nominal Floor to Floor Height {m}
  ,                                       !- Default Construction Set Name
  ,                                       !- Default Schedule Set Name
  ;                                       !- Group Rendering Name

OS:Space,
  {1dc809ad-1b96-4712-aced-19e4f83ee4b0}, !- Handle
  Story 1 West Left Perimeter Space,      !- Name
  ,                                       !- Space Type Name
  ,                                       !- Default Construction Set Name
  ,                                       !- Default Schedule Set Name
  -0,                                     !- Direction of Relative North {deg}
  0,                                      !- X Origin {m}
  0,                                      !- Y Origin {m}
  0,                                      !- Z Origin {m}
  {4878d9ba-fe8c-4c2e-b8ec-705ab2940b82}, !- Building Story Name
  {52f1eba2-231f-4fe3-b334-169d951f6f6f}; !- Thermal Zone Name

OS:Surface,
  {5337994a-29fe-4d26-b7f3-52d7aef901ef}, !- Handle
  Surface 1,                              !- Name
  Floor,                                  !- Surface Type
  ,                                       !- Construction Name
  {1dc809ad-1b96-4712-aced-19e4f83ee4b0}, !- Space Name
  Ground,                                 !- Outside Boundary Condition
  ,                                       !- Outside Boundary Condition Object
  NoSun,                                  !- Sun Exposure
  NoWind,                                 !- Wind Exposure
  ,                                       !- View Factor to Ground
  ,                                       !- Number of Vertices
  0, 0, 0,                                !- X,Y,Z Vertex 1 {m}
  0, 113.389341902768, 0,                 !- X,Y,Z Vertex 2 {m}
  1.52333333333333, 111.866008569435, 0,  !- X,Y,Z Vertex 3 {m}
  1.52333333333333, 1.52333333333333, 0;  !- X,Y,Z Vertex 4 {m}

OS:Surface,
  {eef7f84b-e52a-4bb3-85b9-b742d5e2b224}, !- Handle
  Surface 2,                              !- Name
  Wall,                                   !- Surface Type
  ,                                       !- Construction Name
  {1dc809ad-1b96-4712-aced-19e4f83ee4b0}, !- Space Name
  Outdoors,                               !- Outside Boundary Condition
  ,                                       !- Outside Boundary Condition Object
  SunExposed,                             !- Sun Exposure
  WindExposed,                            !- Wind Exposure
  ,                                       !- View Factor to Ground
  ,                                       !- Number of Vertices
  0, 113.389341902768, 3.2,               !- X,Y,Z Vertex 1 {m}
  0, 113.389341902768, 0,                 !- X,Y,Z Vertex 2 {m}
  0, 0, 0,                                !- X,Y,Z Vertex 3 {m}
  0, 0, 3.2;                              !- X,Y,Z Vertex 4 {m}

OS:Surface,
  {40462171-cdae-489c-afc8-f718c11e658f}, !- Handle
  Surface 3,                              !- Name
  Wall,                                   !- Surface Type
  ,                                       !- Construction Name
  {1dc809ad-1b96-4712-aced-19e4f83ee4b0}, !- Space Name
  Surface,                                !- Outside Boundary Condition
  {28083c93-3266-4320-a92f-e5c696df52a9}, !- Outside Boundary Condition Object
  NoSun,                                  !- Sun Exposure
  NoWind,                                 !- Wind Exposure
  ,                                       !- View Factor to Ground
  ,                                       !- Number of Vertices
  1.52333333333333, 111.866008569435, 3.2, !- X,Y,Z Vertex 1 {m}
  1.52333333333333, 111.866008569435, 0,  !- X,Y,Z Vertex 2 {m}
  0, 113.389341902768, 0,                 !- X,Y,Z Vertex 3 {m}
  0, 113.389341902768, 3.2;               !- X,Y,Z Vertex 4 {m}

OS:Surface,
  {31310878-9f39-4b26-85e1-12868bc89095}, !- Handle
  Surface 4,                              !- Name
  Wall,                                   !- Surface Type
  ,                                       !- Construction Name
  {1dc809ad-1b96-4712-aced-19e4f83ee4b0}, !- Space Name
  Surface,                                !- Outside Boundary Condition
  {5ec2966e-cfa1-4605-a108-24780c4c3586}, !- Outside Boundary Condition Object
  NoSun,                                  !- Sun Exposure
  NoWind,                                 !- Wind Exposure
  ,                                       !- View Factor to Ground
  ,                                       !- Number of Vertices
  1.52333333333333, 1.52333333333333, 3.2, !- X,Y,Z Vertex 1 {m}
  1.52333333333333, 1.52333333333333, 0,  !- X,Y,Z Vertex 2 {m}
  1.52333333333333, 111.866008569435, 0,  !- X,Y,Z Vertex 3 {m}
  1.52333333333333, 111.866008569435, 3.2; !- X,Y,Z Vertex 4 {m}

OS:Surface,
  {9d179f67-ee6d-4311-8396-721498c4cb06}, !- Handle
  Surface 5,                              !- Name
  Wall,                                   !- Surface Type
  ,                                       !- Construction Name
  {1dc809ad-1b96-4712-aced-19e4f83ee4b0}, !- Space Name
  Surface,                                !- Outside Boundary Condition
  {3eed1217-7e94-4620-b9c1-329705c238c4}, !- Outside Boundary Condition Object
  NoSun,                                  !- Sun Exposure
  NoWind,                                 !- Wind Exposure
  ,                                       !- View Factor to Ground
  ,                                       !- Number of Vertices
  0, 0, 3.2,                              !- X,Y,Z Vertex 1 {m}
  0, 0, 0,                                !- X,Y,Z Vertex 2 {m}
  1.52333333333333, 1.52333333333333, 0,  !- X,Y,Z Vertex 3 {m}
  1.52333333333333, 1.52333333333333, 3.2; !- X,Y,Z Vertex 4 {m}

OS:Surface,
  {d9f838a1-fa3e-4d69-9a11-8d87d6ee262a}, !- Handle
  Surface 6,                              !- Name
  RoofCeiling,                            !- Surface Type
  ,                                       !- Construction Name
  {1dc809ad-1b96-4712-aced-19e4f83ee4b0}, !- Space Name
  Surface,                                !- Outside Boundary Condition
  {bfc3e0dc-1d23-4be8-b068-99793b031197}, !- Outside Boundary Condition Object
  NoSun,                                  !- Sun Exposure
  NoWind,                                 !- Wind Exposure
  ,                                       !- View Factor to Ground
  ,                                       !- Number of Vertices
  1.52333333333333, 1.52333333333333, 3.2, !- X,Y,Z Vertex 1 {m}
  1.52333333333333, 111.866008569435, 3.2, !- X,Y,Z Vertex 2 {m}
  0, 113.389341902768, 3.2,               !- X,Y,Z Vertex 3 {m}
  0, 0, 3.2;                              !- X,Y,Z Vertex 4 {m}

OS:Space,
  {f3f31fab-d139-4110-bc48-afea3b95091e}, !- Handle
  Story 1 North Left Perimeter Space,     !- Name
  ,                                       !- Space Type Name
  ,                                       !- Default Construction Set Name
  ,                                       !- Default Schedule Set Name
  -0,                                     !- Direction of Relative North {deg}
  1.52333333333333,                       !- X Origin {m}
  111.866008569435,                       !- Y Origin {m}
  0,                                      !- Z Origin {m}
  {4878d9ba-fe8c-4c2e-b8ec-705ab2940b82}, !- Building Story Name
  {4c3b96b3-b9cb-4b5a-9a72-182dae02e68e}; !- Thermal Zone Name

OS:Surface,
  {063ccacc-f3c4-4e20-880b-003b5e29f5f7}, !- Handle
  Surface 7,                              !- Name
  Floor,                                  !- Surface Type
  ,                                       !- Construction Name
  {f3f31fab-d139-4110-bc48-afea3b95091e}, !- Space Name
  Ground,                                 !- Outside Boundary Condition
  ,                                       !- Outside Boundary Condition Object
  NoSun,                                  !- Sun Exposure
  NoWind,                                 !- Wind Exposure
  ,                                       !- View Factor to Ground
  ,                                       !- Number of Vertices
  -1.52333333333333, 1.52333333333314, 0, !- X,Y,Z Vertex 1 {m}
  36.2731139675894, 1.52333333333314, 0,  !- X,Y,Z Vertex 2 {m}
  34.7497806342561, 1.4210854715202e-13, 0, !- X,Y,Z Vertex 3 {m}
  -3.33066907387547e-15, 1.4210854715202e-13, 0; !- X,Y,Z Vertex 4 {m}

OS:Surface,
  {1c62d86c-ba1a-4b2f-b25e-d09a3076c0c5}, !- Handle
  Surface 8,                              !- Name
  Wall,                                   !- Surface Type
  ,                                       !- Construction Name
  {f3f31fab-d139-4110-bc48-afea3b95091e}, !- Space Name
  Outdoors,                               !- Outside Boundary Condition
  ,                                       !- Outside Boundary Condition Object
  SunExposed,                             !- Sun Exposure
  WindExposed,                            !- Wind Exposure
  ,                                       !- View Factor to Ground
  ,                                       !- Number of Vertices
  36.2731139675894, 1.52333333333314, 3.2, !- X,Y,Z Vertex 1 {m}
  36.2731139675894, 1.52333333333314, 0,  !- X,Y,Z Vertex 2 {m}
  -1.52333333333333, 1.52333333333314, 0, !- X,Y,Z Vertex 3 {m}
  -1.52333333333333, 1.52333333333314, 3.2; !- X,Y,Z Vertex 4 {m}

OS:Surface,
  {385fd181-96e0-4070-bd62-1f9e94e8e550}, !- Handle
  Surface 9,                              !- Name
  Wall,                                   !- Surface Type
  ,                                       !- Construction Name
  {f3f31fab-d139-4110-bc48-afea3b95091e}, !- Space Name
  Surface,                                !- Outside Boundary Condition
  {410e7a19-0663-4322-af8c-3d38f10c1c74}, !- Outside Boundary Condition Object
  NoSun,                                  !- Sun Exposure
  NoWind,                                 !- Wind Exposure
  ,                                       !- View Factor to Ground
  ,                                       !- Number of Vertices
  34.7497806342561, 1.4210854715202e-13, 3.2, !- X,Y,Z Vertex 1 {m}
  34.7497806342561, 1.4210854715202e-13, 0, !- X,Y,Z Vertex 2 {m}
  36.2731139675894, 1.52333333333314, 0,  !- X,Y,Z Vertex 3 {m}
  36.2731139675894, 1.52333333333314, 3.2; !- X,Y,Z Vertex 4 {m}

OS:Surface,
  {b6122918-ca60-4792-942f-4105d3da2c01}, !- Handle
  Surface 10,                             !- Name
  Wall,                                   !- Surface Type
  ,                                       !- Construction Name
  {f3f31fab-d139-4110-bc48-afea3b95091e}, !- Space Name
  Surface,                                !- Outside Boundary Condition
  {1da59603-54e1-4190-a859-0f4acb79b4de}, !- Outside Boundary Condition Object
  NoSun,                                  !- Sun Exposure
  NoWind,                                 !- Wind Exposure
  ,                                       !- View Factor to Ground
  ,                                       !- Number of Vertices
  -3.33066907387547e-15, 1.4210854715202e-13, 3.2, !- X,Y,Z Vertex 1 {m}
  -3.33066907387547e-15, 1.4210854715202e-13, 0, !- X,Y,Z Vertex 2 {m}
  34.7497806342561, 1.4210854715202e-13, 0, !- X,Y,Z Vertex 3 {m}
  34.7497806342561, 1.4210854715202e-13, 3.2; !- X,Y,Z Vertex 4 {m}

OS:Surface,
  {28083c93-3266-4320-a92f-e5c696df52a9}, !- Handle
  Surface 11,                             !- Name
  Wall,                                   !- Surface Type
  ,                                       !- Construction Name
  {f3f31fab-d139-4110-bc48-afea3b95091e}, !- Space Name
  Surface,                                !- Outside Boundary Condition
  {40462171-cdae-489c-afc8-f718c11e658f}, !- Outside Boundary Condition Object
  NoSun,                                  !- Sun Exposure
  NoWind,                                 !- Wind Exposure
  ,                                       !- View Factor to Ground
  ,                                       !- Number of Vertices
  -1.52333333333333, 1.52333333333314, 3.2, !- X,Y,Z Vertex 1 {m}
  -1.52333333333333, 1.52333333333314, 0, !- X,Y,Z Vertex 2 {m}
  -3.33066907387547e-15, 1.4210854715202e-13, 0, !- X,Y,Z Vertex 3 {m}
  -3.33066907387547e-15, 1.4210854715202e-13, 3.2; !- X,Y,Z Vertex 4 {m}

OS:Surface,
  {26c8e4d7-a4bb-431d-8535-eb6fad3aa91d}, !- Handle
  Surface 12,                             !- Name
  RoofCeiling,                            !- Surface Type
  ,                                       !- Construction Name
  {f3f31fab-d139-4110-bc48-afea3b95091e}, !- Space Name
  Surface,                                !- Outside Boundary Condition
  {a8160ebb-47ff-409b-ac6b-19cd7a885cbf}, !- Outside Boundary Condition Object
  NoSun,                                  !- Sun Exposure
  NoWind,                                 !- Wind Exposure
  ,                                       !- View Factor to Ground
  ,                                       !- Number of Vertices
  -3.33066907387547e-15, 1.4210854715202e-13, 3.2, !- X,Y,Z Vertex 1 {m}
  34.7497806342561, 1.4210854715202e-13, 3.2, !- X,Y,Z Vertex 2 {m}
  36.2731139675894, 1.52333333333314, 3.2, !- X,Y,Z Vertex 3 {m}
  -1.52333333333333, 1.52333333333314, 3.2; !- X,Y,Z Vertex 4 {m}

OS:Space,
  {ea9fed65-0c12-4732-9f07-7baf54398328}, !- Handle
  Story 1 East Left Perimeter Space,      !- Name
  ,                                       !- Space Type Name
  ,                                       !- Default Construction Set Name
  ,                                       !- Default Schedule Set Name
  -0,                                     !- Direction of Relative North {deg}
  36.2731139675894,                       !- X Origin {m}
  36.2731139675894,                       !- Y Origin {m}
  0,                                      !- Z Origin {m}
  {4878d9ba-fe8c-4c2e-b8ec-705ab2940b82}, !- Building Story Name
  {7f6d2982-f8cd-412d-baf2-85d9d9945678}; !- Thermal Zone Name

OS:Surface,
  {eb353a92-8d36-4464-a602-1badc67ac39a}, !- Handle
  Surface 13,                             !- Name
  Floor,                                  !- Surface Type
  ,                                       !- Construction Name
  {ea9fed65-0c12-4732-9f07-7baf54398328}, !- Space Name
  Ground,                                 !- Outside Boundary Condition
  ,                                       !- Outside Boundary Condition Object
  NoSun,                                  !- Sun Exposure
  NoWind,                                 !- Wind Exposure
  ,                                       !- View Factor to Ground
  ,                                       !- Number of Vertices
  1.52333333333331, 77.1162279351786, 0,  !- X,Y,Z Vertex 1 {m}
  1.52333333333331, 1.52333333333331, 0,  !- X,Y,Z Vertex 2 {m}
  7.105427357601e-15, 1.4210854715202e-14, 0, !- X,Y,Z Vertex 3 {m}
  7.105427357601e-15, 75.5928946018456, 0; !- X,Y,Z Vertex 4 {m}

OS:Surface,
  {93d73f82-658b-445e-aa73-13afcc9d5e95}, !- Handle
  Surface 14,                             !- Name
  Wall,                                   !- Surface Type
  ,                                       !- Construction Name
  {ea9fed65-0c12-4732-9f07-7baf54398328}, !- Space Name
  Outdoors,                               !- Outside Boundary Condition
  ,                                       !- Outside Boundary Condition Object
  SunExposed,                             !- Sun Exposure
  WindExposed,                            !- Wind Exposure
  ,                                       !- View Factor to Ground
  ,                                       !- Number of Vertices
  1.52333333333331, 1.52333333333331, 3.2, !- X,Y,Z Vertex 1 {m}
  1.52333333333331, 1.52333333333331, 0,  !- X,Y,Z Vertex 2 {m}
  1.52333333333331, 77.1162279351786, 0,  !- X,Y,Z Vertex 3 {m}
  1.52333333333331, 77.1162279351786, 3.2; !- X,Y,Z Vertex 4 {m}

OS:Surface,
  {de9ee950-3cf6-449e-988b-60fec0d6576c}, !- Handle
  Surface 15,                             !- Name
  Wall,                                   !- Surface Type
  ,                                       !- Construction Name
  {ea9fed65-0c12-4732-9f07-7baf54398328}, !- Space Name
  Surface,                                !- Outside Boundary Condition
  {05110cf2-c8d3-4d65-bc39-4e29c617f33f}, !- Outside Boundary Condition Object
  NoSun,                                  !- Sun Exposure
  NoWind,                                 !- Wind Exposure
  ,                                       !- View Factor to Ground
  ,                                       !- Number of Vertices
  7.105427357601e-15, 1.4210854715202e-14, 3.2, !- X,Y,Z Vertex 1 {m}
  7.105427357601e-15, 1.4210854715202e-14, 0, !- X,Y,Z Vertex 2 {m}
  1.52333333333331, 1.52333333333331, 0,  !- X,Y,Z Vertex 3 {m}
  1.52333333333331, 1.52333333333331, 3.2; !- X,Y,Z Vertex 4 {m}

OS:Surface,
  {bed61e43-6199-44cc-b789-2c11b14f7aaf}, !- Handle
  Surface 16,                             !- Name
  Wall,                                   !- Surface Type
  ,                                       !- Construction Name
  {ea9fed65-0c12-4732-9f07-7baf54398328}, !- Space Name
  Surface,                                !- Outside Boundary Condition
  {64502ecc-9ad1-49b6-babe-08dd875012c8}, !- Outside Boundary Condition Object
  NoSun,                                  !- Sun Exposure
  NoWind,                                 !- Wind Exposure
  ,                                       !- View Factor to Ground
  ,                                       !- Number of Vertices
  7.105427357601e-15, 75.5928946018456, 3.2, !- X,Y,Z Vertex 1 {m}
  7.105427357601e-15, 75.5928946018456, 0, !- X,Y,Z Vertex 2 {m}
  7.105427357601e-15, 1.4210854715202e-14, 0, !- X,Y,Z Vertex 3 {m}
  7.105427357601e-15, 1.4210854715202e-14, 3.2; !- X,Y,Z Vertex 4 {m}

OS:Surface,
  {410e7a19-0663-4322-af8c-3d38f10c1c74}, !- Handle
  Surface 17,                             !- Name
  Wall,                                   !- Surface Type
  ,                                       !- Construction Name
  {ea9fed65-0c12-4732-9f07-7baf54398328}, !- Space Name
  Surface,                                !- Outside Boundary Condition
  {385fd181-96e0-4070-bd62-1f9e94e8e550}, !- Outside Boundary Condition Object
  NoSun,                                  !- Sun Exposure
  NoWind,                                 !- Wind Exposure
  ,                                       !- View Factor to Ground
  ,                                       !- Number of Vertices
  1.52333333333331, 77.1162279351786, 3.2, !- X,Y,Z Vertex 1 {m}
  1.52333333333331, 77.1162279351786, 0,  !- X,Y,Z Vertex 2 {m}
  7.105427357601e-15, 75.5928946018456, 0, !- X,Y,Z Vertex 3 {m}
  7.105427357601e-15, 75.5928946018456, 3.2; !- X,Y,Z Vertex 4 {m}

OS:Surface,
  {9713c4d7-6e66-4c7b-9f8b-0cd133cfd94b}, !- Handle
  Surface 18,                             !- Name
  RoofCeiling,                            !- Surface Type
  ,                                       !- Construction Name
  {ea9fed65-0c12-4732-9f07-7baf54398328}, !- Space Name
  Surface,                                !- Outside Boundary Condition
  {d8d0d9bc-4870-46a5-a068-bd95b851cddd}, !- Outside Boundary Condition Object
  NoSun,                                  !- Sun Exposure
  NoWind,                                 !- Wind Exposure
  ,                                       !- View Factor to Ground
  ,                                       !- Number of Vertices
  7.105427357601e-15, 75.5928946018456, 3.2, !- X,Y,Z Vertex 1 {m}
  7.105427357601e-15, 1.4210854715202e-14, 3.2, !- X,Y,Z Vertex 2 {m}
  1.52333333333331, 1.52333333333331, 3.2, !- X,Y,Z Vertex 3 {m}
  1.52333333333331, 77.1162279351786, 3.2; !- X,Y,Z Vertex 4 {m}

OS:Space,
  {3a1e231e-eea7-4634-8cdb-7bc1bb652586}, !- Handle
  Story 1 North Lower Perimeter Space,    !- Name
  ,                                       !- Space Type Name
  ,                                       !- Default Construction Set Name
  ,                                       !- Default Schedule Set Name
  -0,                                     !- Direction of Relative North {deg}
  36.2731139675894,                       !- X Origin {m}
  36.2731139675894,                       !- Y Origin {m}
  0,                                      !- Z Origin {m}
  {4878d9ba-fe8c-4c2e-b8ec-705ab2940b82}, !- Building Story Name
  {2e3c7bf9-166c-49fb-83b0-f51acf58c9c4}; !- Thermal Zone Name

OS:Surface,
  {b464ca86-fdb0-49e4-aab7-df120df357c1}, !- Handle
  Surface 19,                             !- Name
  Floor,                                  !- Surface Type
  ,                                       !- Construction Name
  {3a1e231e-eea7-4634-8cdb-7bc1bb652586}, !- Space Name
  Ground,                                 !- Outside Boundary Condition
  ,                                       !- Outside Boundary Condition Object
  NoSun,                                  !- Sun Exposure
  NoWind,                                 !- Wind Exposure
  ,                                       !- View Factor to Ground
  ,                                       !- Number of Vertices
  1.52333333333331, 1.52333333333331, 0,  !- X,Y,Z Vertex 1 {m}
  39.319780634256, 1.52333333333331, 0,   !- X,Y,Z Vertex 2 {m}
  40.8431139675894, 1.4210854715202e-14, 0, !- X,Y,Z Vertex 3 {m}
  7.105427357601e-15, 1.4210854715202e-14, 0; !- X,Y,Z Vertex 4 {m}

OS:Surface,
  {7f338c7d-7668-485e-a54a-9d3dd719c52f}, !- Handle
  Surface 20,                             !- Name
  Wall,                                   !- Surface Type
  ,                                       !- Construction Name
  {3a1e231e-eea7-4634-8cdb-7bc1bb652586}, !- Space Name
  Outdoors,                               !- Outside Boundary Condition
  ,                                       !- Outside Boundary Condition Object
  SunExposed,                             !- Sun Exposure
  WindExposed,                            !- Wind Exposure
  ,                                       !- View Factor to Ground
  ,                                       !- Number of Vertices
  39.319780634256, 1.52333333333331, 3.2, !- X,Y,Z Vertex 1 {m}
  39.319780634256, 1.52333333333331, 0,   !- X,Y,Z Vertex 2 {m}
  1.52333333333331, 1.52333333333331, 0,  !- X,Y,Z Vertex 3 {m}
  1.52333333333331, 1.52333333333331, 3.2; !- X,Y,Z Vertex 4 {m}

OS:Surface,
  {462c3f3b-2f94-45bc-bf5b-869bdbc57708}, !- Handle
  Surface 21,                             !- Name
  Wall,                                   !- Surface Type
  ,                                       !- Construction Name
  {3a1e231e-eea7-4634-8cdb-7bc1bb652586}, !- Space Name
  Surface,                                !- Outside Boundary Condition
  {cdd38f7f-80a2-49ae-97bf-e72a40e61fd9}, !- Outside Boundary Condition Object
  NoSun,                                  !- Sun Exposure
  NoWind,                                 !- Wind Exposure
  ,                                       !- View Factor to Ground
  ,                                       !- Number of Vertices
  40.8431139675894, 1.4210854715202e-14, 3.2, !- X,Y,Z Vertex 1 {m}
  40.8431139675894, 1.4210854715202e-14, 0, !- X,Y,Z Vertex 2 {m}
  39.319780634256, 1.52333333333331, 0,   !- X,Y,Z Vertex 3 {m}
  39.319780634256, 1.52333333333331, 3.2; !- X,Y,Z Vertex 4 {m}

OS:Surface,
  {a42cbb31-6204-49bf-8f59-d345d8174aae}, !- Handle
  Surface 22,                             !- Name
  Wall,                                   !- Surface Type
  ,                                       !- Construction Name
  {3a1e231e-eea7-4634-8cdb-7bc1bb652586}, !- Space Name
  Surface,                                !- Outside Boundary Condition
  {ee3d204f-7ad0-439f-9750-8093cd146e92}, !- Outside Boundary Condition Object
  NoSun,                                  !- Sun Exposure
  NoWind,                                 !- Wind Exposure
  ,                                       !- View Factor to Ground
  ,                                       !- Number of Vertices
  7.105427357601e-15, 1.4210854715202e-14, 3.2, !- X,Y,Z Vertex 1 {m}
  7.105427357601e-15, 1.4210854715202e-14, 0, !- X,Y,Z Vertex 2 {m}
  40.8431139675894, 1.4210854715202e-14, 0, !- X,Y,Z Vertex 3 {m}
  40.8431139675894, 1.4210854715202e-14, 3.2; !- X,Y,Z Vertex 4 {m}

OS:Surface,
  {05110cf2-c8d3-4d65-bc39-4e29c617f33f}, !- Handle
  Surface 23,                             !- Name
  Wall,                                   !- Surface Type
  ,                                       !- Construction Name
  {3a1e231e-eea7-4634-8cdb-7bc1bb652586}, !- Space Name
  Surface,                                !- Outside Boundary Condition
  {de9ee950-3cf6-449e-988b-60fec0d6576c}, !- Outside Boundary Condition Object
  NoSun,                                  !- Sun Exposure
  NoWind,                                 !- Wind Exposure
  ,                                       !- View Factor to Ground
  ,                                       !- Number of Vertices
  1.52333333333331, 1.52333333333331, 3.2, !- X,Y,Z Vertex 1 {m}
  1.52333333333331, 1.52333333333331, 0,  !- X,Y,Z Vertex 2 {m}
  7.105427357601e-15, 1.4210854715202e-14, 0, !- X,Y,Z Vertex 3 {m}
  7.105427357601e-15, 1.4210854715202e-14, 3.2; !- X,Y,Z Vertex 4 {m}

OS:Surface,
  {e86ca88b-eeba-465c-bf14-b6447defbb68}, !- Handle
  Surface 24,                             !- Name
  RoofCeiling,                            !- Surface Type
  ,                                       !- Construction Name
  {3a1e231e-eea7-4634-8cdb-7bc1bb652586}, !- Space Name
  Surface,                                !- Outside Boundary Condition
  {5cebd068-8d6d-40d3-9745-6cd17405cf17}, !- Outside Boundary Condition Object
  NoSun,                                  !- Sun Exposure
  NoWind,                                 !- Wind Exposure
  ,                                       !- View Factor to Ground
  ,                                       !- Number of Vertices
  7.105427357601e-15, 1.4210854715202e-14, 3.2, !- X,Y,Z Vertex 1 {m}
  40.8431139675894, 1.4210854715202e-14, 3.2, !- X,Y,Z Vertex 2 {m}
  39.319780634256, 1.52333333333331, 3.2, !- X,Y,Z Vertex 3 {m}
  1.52333333333331, 1.52333333333331, 3.2; !- X,Y,Z Vertex 4 {m}

OS:Space,
  {de1d9cb3-f7c5-4f0d-99b8-808a28772b72}, !- Handle
  Story 1 West Right Perimeter Space,     !- Name
  ,                                       !- Space Type Name
  ,                                       !- Default Construction Set Name
  ,                                       !- Default Schedule Set Name
  -0,                                     !- Direction of Relative North {deg}
  75.5928946018454,                       !- X Origin {m}
  37.7964473009227,                       !- Y Origin {m}
  0,                                      !- Z Origin {m}
  {4878d9ba-fe8c-4c2e-b8ec-705ab2940b82}, !- Building Story Name
  {1bc1210b-004d-4529-a9c2-18766ebdbd7f}; !- Thermal Zone Name

OS:Surface,
  {d3907f7a-14ea-40d8-b628-a8a02d29a38f}, !- Handle
  Surface 25,                             !- Name
  Floor,                                  !- Surface Type
  ,                                       !- Construction Name
  {de1d9cb3-f7c5-4f0d-99b8-808a28772b72}, !- Space Name
  Ground,                                 !- Outside Boundary Condition
  ,                                       !- Outside Boundary Condition Object
  NoSun,                                  !- Sun Exposure
  NoWind,                                 !- Wind Exposure
  ,                                       !- View Factor to Ground
  ,                                       !- Number of Vertices
  -4.2632564145606e-14, -2.1316282072803e-14, 0, !- X,Y,Z Vertex 1 {m}
  -4.2632564145606e-14, 75.5928946018453, 0, !- X,Y,Z Vertex 2 {m}
  1.52333333333335, 74.0695612685123, 0,  !- X,Y,Z Vertex 3 {m}
  1.52333333333335, -1.52333333333332, 0; !- X,Y,Z Vertex 4 {m}

OS:Surface,
  {be11bbef-fc72-43a7-9452-af4cda2c51e3}, !- Handle
  Surface 26,                             !- Name
  Wall,                                   !- Surface Type
  ,                                       !- Construction Name
  {de1d9cb3-f7c5-4f0d-99b8-808a28772b72}, !- Space Name
  Outdoors,                               !- Outside Boundary Condition
  ,                                       !- Outside Boundary Condition Object
  SunExposed,                             !- Sun Exposure
  WindExposed,                            !- Wind Exposure
  ,                                       !- View Factor to Ground
  ,                                       !- Number of Vertices
  -4.2632564145606e-14, 75.5928946018453, 3.2, !- X,Y,Z Vertex 1 {m}
  -4.2632564145606e-14, 75.5928946018453, 0, !- X,Y,Z Vertex 2 {m}
  -4.2632564145606e-14, -2.1316282072803e-14, 0, !- X,Y,Z Vertex 3 {m}
  -4.2632564145606e-14, -2.1316282072803e-14, 3.2; !- X,Y,Z Vertex 4 {m}

OS:Surface,
  {f71640b4-251d-4805-8d2f-57c601d06d35}, !- Handle
  Surface 27,                             !- Name
  Wall,                                   !- Surface Type
  ,                                       !- Construction Name
  {de1d9cb3-f7c5-4f0d-99b8-808a28772b72}, !- Space Name
  Surface,                                !- Outside Boundary Condition
  {c915929f-50f1-4bb0-9993-74eae3e3631a}, !- Outside Boundary Condition Object
  NoSun,                                  !- Sun Exposure
  NoWind,                                 !- Wind Exposure
  ,                                       !- View Factor to Ground
  ,                                       !- Number of Vertices
  1.52333333333335, 74.0695612685123, 3.2, !- X,Y,Z Vertex 1 {m}
  1.52333333333335, 74.0695612685123, 0,  !- X,Y,Z Vertex 2 {m}
  -4.2632564145606e-14, 75.5928946018453, 0, !- X,Y,Z Vertex 3 {m}
  -4.2632564145606e-14, 75.5928946018453, 3.2; !- X,Y,Z Vertex 4 {m}

OS:Surface,
  {9b57f2ad-d942-4cc3-b284-8fd3b629b570}, !- Handle